File C:\Users\j-b-j\Documents\Calcpad-7.5.7\awatif-2.0.0\tests\results\automesh_v2.$2k was saved on m/d/yy at h:mm:ss
 
TABLE:  "ACTIVE DEGREES OF FREEDOM"
   UX=Yes   UY=Yes   UZ=Yes   RX=Yes   RY=Yes   RZ=Yes
 
TABLE:  "ANALYSIS OPTIONS"
   Solver=Advanced   SolverProc=Auto   Force32Bit=No   StiffCase=None   GeomMod=None   HingeOpt="In Elements"   NumAThreads=0   MaxFileSize=0   NumDThreads=0   NumRThreads=0   UseMMFiles="Program Determined"   AllowDiff=No
 
TABLE:  "AREA LOADS - UNIFORM"
   Area=LOSA   LoadPat=CARGA   CoordSys=GLOBAL   Dir=Z   UnifLoad=10
 
TABLE:  "AREA SECTION ASSIGNMENTS"
   Area=LOSA   Section=PLACA   MatProp=Default
 
TABLE:  "AREA SECTION PROPERTIES"
   Section=PLACA   Material=CONC   MatAngle=0   AreaType=Shell   Type=Plate-Thin   Thickness=0.1   BendThick=0.1   Color=Yellow   F11Mod=1   F22Mod=1   F12Mod=1   M11Mod=1   M22Mod=1   M12Mod=1   V13Mod=1   V23Mod=1   MMod=1   WMod=1
 
TABLE:  "AREA SECTION PROPERTY DESIGN PARAMETERS"
   Section=PLACA   RebarMat=None   RebarOpt=Default
 
TABLE:  "AREA SECTION PROPERTY - TIME DEPENDENT"
   Section=PLACA   TypeSize=Auto   AutoSFSize=1
 
TABLE:  "AUTO WAVE 3 - WAVE CHARACTERISTICS - GENERAL"
   WaveChar=Default   WaveType="From Theory"   KinFactor=1   SWaterDepth=45   WaveHeight=18   WavePeriod=12   WaveTheory=Linear
 
TABLE:  "CASE - MODAL 1 - GENERAL"
   Case=MODAL   ModeType=Eigen   MaxNumModes=12   MinNumModes=1   EigenShift=0   EigenCutoff=0   EigenTol=1E-09   AutoShift=Yes
 
TABLE:  "CASE - STATIC 1 - LOAD ASSIGNMENTS"
   Case=DEAD   LoadType="Load pattern"   LoadName=DEAD   LoadSF=1
   Case=CARGA   LoadType="Load pattern"   LoadName=CARGA   LoadSF=1
 
TABLE:  "CONNECTIVITY - AREA"
   Area=LOSA   Joint1=1   Joint2=7   Joint3=35   Joint4=29   GUID=5f422092-1c17-46cc-9a18-fb017ec4dc03
 
TABLE:  "COORDINATE SYSTEMS"
   Name=GLOBAL   Type=Cartesian   X=0   Y=0   Z=0   AboutZ=0   AboutY=0   AboutX=0
 
TABLE:  "DATABASE DOCUMENTATION"
 
TABLE:  "DATABASE FORMAT TYPES"
   UnitsCurr=Yes   OverrideE=No
 
TABLE:  "FUNCTION - PLOT FUNCTIONS"
   PlotFunc="Input Energy"   Type=Energy   Component=Input   Mode=All
 
TABLE:  "FUNCTION - POWER SPECTRAL DENSITY - USER"
   Name=UNIFPSD   Frequency=0   Value=1
   Name=UNIFPSD   Frequency=1   Value=1
 
TABLE:  "FUNCTION - RESPONSE SPECTRUM - USER"
   Name=UNIFRS   Period=0   Accel=1   FuncDamp=0.05
   Name=UNIFRS   Period=1   Accel=1
 
TABLE:  "FUNCTION - STEADY STATE - USER"
   Name=UNIFSS   Frequency=0   Value=1
   Name=UNIFSS   Frequency=1   Value=1
 
TABLE:  "FUNCTION - TIME HISTORY - USER"
   Name=RAMPTH   Time=0   Value=0
   Name=RAMPTH   Time=1   Value=1
   Name=RAMPTH   Time=4   Value=1
   Name=UNIFTH   Time=0   Value=1
   Name=UNIFTH   Time=1   Value=1
 
TABLE:  "GROUPS 1 - DEFINITIONS"
   GroupName=ALL   Selection=Yes   SectionCut=Yes   Steel=Yes   Concrete=Yes   Aluminum=Yes   ColdFormed=Yes   Stage=Yes   Bridge=Yes   AutoSeismic=No   AutoWind=No   SelDesSteel=No   SelDesAlum=No   SelDesCold=No   MassWeight=Yes   Color=Red
 
TABLE:  "JOINT COORDINATES"
   Joint=1   CoordSys=GLOBAL   CoordType=Cartesian   XorR=0   Y=0   Z=0   SpecialJt=Yes   GUID=0d703b15-5dd6-4e31-bf3d-13c58d990cdc
   Joint=2   CoordSys=GLOBAL   CoordType=Cartesian   XorR=1   Y=0   Z=0   SpecialJt=Yes   GUID=368714d2-6cfa-40ce-89f3-04c5065da725
   Joint=3   CoordSys=GLOBAL   CoordType=Cartesian   XorR=2   Y=0   Z=0   SpecialJt=Yes   GUID=4aa85046-b824-407b-8300-53580f47d972
   Joint=4   CoordSys=GLOBAL   CoordType=Cartesian   XorR=3   Y=0   Z=0   SpecialJt=Yes   GUID=e22babdb-c4aa-4940-add0-5ee6168780e0
   Joint=5   CoordSys=GLOBAL   CoordType=Cartesian   XorR=4   Y=0   Z=0   SpecialJt=Yes   GUID=f1b4115e-cbf6-44ec-b3f7-70c40429e2d6
   Joint=6   CoordSys=GLOBAL   CoordType=Cartesian   XorR=5   Y=0   Z=0   SpecialJt=Yes   GUID=74b29bf8-bc30-4bea-a7d6-e46dba5ebc22
   Joint=7   CoordSys=GLOBAL   CoordType=Cartesian   XorR=6   Y=0   Z=0   SpecialJt=Yes   GUID=48680f37-1ee4-4361-8570-f572a956c37e
   Joint=8   CoordSys=GLOBAL   CoordType=Cartesian   XorR=0   Y=1   Z=0   SpecialJt=Yes   GUID=2a35c085-1eb8-401c-9197-12205f1ee970
   Joint=9   CoordSys=GLOBAL   CoordType=Cartesian   XorR=1   Y=1   Z=0   SpecialJt=Yes   GUID=8b075a95-fb7c-4adc-a561-cff646bd45d8
   Joint=10   CoordSys=GLOBAL   CoordType=Cartesian   XorR=2   Y=1   Z=0   SpecialJt=Yes   GUID=1b9255ee-118d-409f-ac5d-125625479a26
   Joint=11   CoordSys=GLOBAL   CoordType=Cartesian   XorR=3   Y=1   Z=0   SpecialJt=Yes   GUID=842b0e04-bd61-4d5c-9b8b-90c45a6ad40f
   Joint=12   CoordSys=GLOBAL   CoordType=Cartesian   XorR=4   Y=1   Z=0   SpecialJt=Yes   GUID=a0d72024-fbd4-4b70-8d2a-859b4e88b060
   Joint=13   CoordSys=GLOBAL   CoordType=Cartesian   XorR=5   Y=1   Z=0   SpecialJt=Yes   GUID=c1cd021b-fcb9-44e2-a40e-9996d9c96d75
   Joint=14   CoordSys=GLOBAL   CoordType=Cartesian   XorR=6   Y=1   Z=0   SpecialJt=Yes   GUID=ee317e63-e00e-4af3-aaff-eeb4307726ad
   Joint=15   CoordSys=GLOBAL   CoordType=Cartesian   XorR=0   Y=2   Z=0   SpecialJt=Yes   GUID=c615ef0b-917c-4196-8493-3a3311d6ac89
   Joint=16   CoordSys=GLOBAL   CoordType=Cartesian   XorR=1   Y=2   Z=0   SpecialJt=Yes   GUID=fd1e8255-8438-4186-b54d-e54bbfc177f0
   Joint=17   CoordSys=GLOBAL   CoordType=Cartesian   XorR=2   Y=2   Z=0   SpecialJt=Yes   GUID=3afcd3b0-9866-4507-ad4e-aa29db80df38
   Joint=18   CoordSys=GLOBAL   CoordType=Cartesian   XorR=3   Y=2   Z=0   SpecialJt=Yes   GUID=03f961e8-c427-428e-b23a-9042629c3940
   Joint=19   CoordSys=GLOBAL   CoordType=Cartesian   XorR=4   Y=2   Z=0   SpecialJt=Yes   GUID=1001aca7-4d5c-4f53-a764-3287c54e8daf
   Joint=20   CoordSys=GLOBAL   CoordType=Cartesian   XorR=5   Y=2   Z=0   SpecialJt=Yes   GUID=5a3e0c11-0697-4c0f-834a-53b9bd9afd25
   Joint=21   CoordSys=GLOBAL   CoordType=Cartesian   XorR=6   Y=2   Z=0   SpecialJt=Yes   GUID=43680b52-a295-4143-808b-620f71875eed
   Joint=22   CoordSys=GLOBAL   CoordType=Cartesian   XorR=0   Y=3   Z=0   SpecialJt=Yes   GUID=ced565ab-a070-4dd5-8661-699fe47c735d
   Joint=23   CoordSys=GLOBAL   CoordType=Cartesian   XorR=1   Y=3   Z=0   SpecialJt=Yes   GUID=c6e60960-9bd2-49b7-b25d-b8d734205b53
   Joint=24   CoordSys=GLOBAL   CoordType=Cartesian   XorR=2   Y=3   Z=0   SpecialJt=Yes   GUID=1fca78ec-9876-4b71-9d6c-9b058a446d8f
   Joint=25   CoordSys=GLOBAL   CoordType=Cartesian   XorR=3   Y=3   Z=0   SpecialJt=Yes   GUID=0de11661-e9ef-456a-af53-e4199882519c
   Joint=26   CoordSys=GLOBAL   CoordType=Cartesian   XorR=4   Y=3   Z=0   SpecialJt=Yes   GUID=f2cd1b85-c15b-43c6-93ab-b85fda0db33e
   Joint=27   CoordSys=GLOBAL   CoordType=Cartesian   XorR=5   Y=3   Z=0   SpecialJt=Yes   GUID=bf522f2c-ead7-4313-b9bc-30ef1f8f74fb
   Joint=28   CoordSys=GLOBAL   CoordType=Cartesian   XorR=6   Y=3   Z=0   SpecialJt=Yes   GUID=0c665a58-4efd-4e2e-add7-5e2773de44be
   Joint=29   CoordSys=GLOBAL   CoordType=Cartesian   XorR=0   Y=4   Z=0   SpecialJt=Yes   GUID=391bd13e-16e5-4e7a-a002-cd3b52d5bbd4
   Joint=30   CoordSys=GLOBAL   CoordType=Cartesian   XorR=1   Y=4   Z=0   SpecialJt=Yes   GUID=cf883bc0-8335-442b-b265-da00cea38fed
   Joint=31   CoordSys=GLOBAL   CoordType=Cartesian   XorR=2   Y=4   Z=0   SpecialJt=Yes   GUID=deb835c7-1a02-4f16-9f77-b1488a6e20c1
   Joint=32   CoordSys=GLOBAL   CoordType=Cartesian   XorR=3   Y=4   Z=0   SpecialJt=Yes   GUID=e80fcef8-e849-4c1f-9db1-ace18f4de2ca
   Joint=33   CoordSys=GLOBAL   CoordType=Cartesian   XorR=4   Y=4   Z=0   SpecialJt=Yes   GUID=0b2cea8a-bc49-407f-8bf8-a60dc0d61c8d
   Joint=34   CoordSys=GLOBAL   CoordType=Cartesian   XorR=5   Y=4   Z=0   SpecialJt=Yes   GUID=8811bea7-b602-4b08-9c94-2002512a06c6
   Joint=35   CoordSys=GLOBAL   CoordType=Cartesian   XorR=6   Y=4   Z=0   SpecialJt=Yes   GUID=33a8500a-c7d7-4c45-b714-940030193e40
 
TABLE:  "JOINT PATTERN DEFINITIONS"
   Pattern=Default
 
TABLE:  "JOINT RESTRAINT ASSIGNMENTS"
   Joint=1   U1=No   U2=No   U3=Yes   R1=No   R2=No   R3=No
   Joint=2   U1=No   U2=No   U3=Yes   R1=No   R2=No   R3=No
   Joint=3   U1=No   U2=No   U3=Yes   R1=No   R2=No   R3=No
   Joint=4   U1=No   U2=No   U3=Yes   R1=No   R2=No   R3=No
   Joint=5   U1=No   U2=No   U3=Yes   R1=No   R2=No   R3=No
   Joint=6   U1=No   U2=No   U3=Yes   R1=No   R2=No   R3=No
   Joint=7   U1=No   U2=No   U3=Yes   R1=No   R2=No   R3=No
   Joint=8   U1=No   U2=No   U3=Yes   R1=No   R2=No   R3=No
   Joint=14   U1=No   U2=No   U3=Yes   R1=No   R2=No   R3=No
   Joint=15   U1=No   U2=No   U3=Yes   R1=No   R2=No   R3=No
   Joint=21   U1=No   U2=No   U3=Yes   R1=No   R2=No   R3=No
   Joint=22   U1=No   U2=No   U3=Yes   R1=No   R2=No   R3=No
   Joint=28   U1=No   U2=No   U3=Yes   R1=No   R2=No   R3=No
   Joint=29   U1=No   U2=No   U3=Yes   R1=No   R2=No   R3=No
   Joint=30   U1=No   U2=No   U3=Yes   R1=No   R2=No   R3=No
   Joint=31   U1=No   U2=No   U3=Yes   R1=No   R2=No   R3=No
   Joint=32   U1=No   U2=No   U3=Yes   R1=No   R2=No   R3=No
   Joint=33   U1=No   U2=No   U3=Yes   R1=No   R2=No   R3=No
   Joint=34   U1=No   U2=No   U3=Yes   R1=No   R2=No   R3=No
   Joint=35   U1=No   U2=No   U3=Yes   R1=No   R2=No   R3=No
 
TABLE:  "LOAD CASE DEFINITIONS"
   Case=DEAD   Type=LinStatic   InitialCond=Zero   DesTypeOpt="Prog Det"   DesignType=Dead   DesActOpt="Prog Det"   DesignAct=Non-Composite   AutoType=None   RunCase=Yes   GUID=febfa91c-ad24-46c6-b347-d3572a7ca641
   Case=MODAL   Type=LinModal   InitialCond=Zero   DesTypeOpt="Prog Det"   DesignType=Other   DesActOpt="Prog Det"   DesignAct=Other   AutoType=None   RunCase=Yes   GUID=0cddab6c-daa7-4987-b5f6-67e67e675aee
   Case=CARGA   Type=LinStatic   InitialCond=Zero   DesTypeOpt="Prog Det"   DesignType=Other   DesActOpt="Prog Det"   DesignAct=Other   AutoType=None   RunCase=Yes   GUID=86e9876f-56af-4bad-97ab-078d89f97b50
 
TABLE:  "LOAD PATTERN DEFINITIONS"
   LoadPat=DEAD   DesignType=Dead   SelfWtMult=1   GUID=ad691ca3-4462-4e78-9721-8cb9a1d4046f
   LoadPat=CARGA   DesignType=Other   SelfWtMult=1   GUID=a0f40f91-c8f5-4a27-aa9f-dc187ed9d764
 
TABLE:  "MASS SOURCE"
   MassSource=MSSSRC1   Elements=Yes   Masses=Yes   Loads=No   IsDefault=Yes
 
TABLE:  "MATERIAL PROPERTIES 01 - GENERAL"
   Material=4000Psi   Type=Concrete   Grade="f'c 4000 psi"   SymType=Isotropic   TempDepend=No   Color=Red   GUID=e37678be-995b-4d56-8f1f-8561fbfd3ff1   Notes="Customary f'c 4000 psi 2/4/2026 6:41:05 AM"
   Material=A992Fy50   Type=Steel   Grade="Grade 50"   SymType=Isotropic   TempDepend=No   Color=Cyan   Notes="ASTM A992 Grade 50 2/4/2026 6:41:05 AM"
   Material=CONC   Type=Concrete   SymType=Isotropic   TempDepend=No   Color=Magenta
 
TABLE:  "MATERIAL PROPERTIES 02 - BASIC MECHANICAL PROPERTIES"
   Material=4000Psi   UnitWeight=23.5631216161854   UnitMass=2.40276960558926   E1=24855578.0600518   G12=10356490.8583549   U12=0.2   A1=9.89999952793124E-06
   Material=A992Fy50   UnitWeight=76.9728639422648   UnitMass=7.84904737995992   E1=199947978.795958   G12=76903068.767676   U12=0.3   A1=1.16999994421006E-05
   Material=CONC   UnitWeight=23.563121614979   UnitMass=2.40276960611018   E1=35000000   G12=15217391.3043478   U12=0.15   A1=1E-05
 
TABLE:  "MATERIAL PROPERTIES 03A - STEEL DATA"
   Material=A992Fy50   Fy=344737.894475789   Fu=448159.262818526   EffFy=379211.683923368   EffFu=492975.189100378   SSCurveOpt=Simple   SSHysType=Kinematic   SHard=0.015   SMax=0.11   SRup=0.17   FinalSlope=-0.1   CoupModType="Von Mises"
 
TABLE:  "MATERIAL PROPERTIES 03B - CONCRETE DATA"
   Material=4000Psi   Fc=27579.0315580631   eFc=27579.0315580631   LtWtConc=No   SSCurveOpt=Mander   SSHysType=Takeda   SFc=0.00221914   SCap=0.005   FinalSlope=-0.1   FAngle=0   DAngle=0   CoupModType="Modified Darwin-Pecknold"
   Material=CONC   Fc=27579.0315580631   eFc=27579.0315580631   LtWtConc=No   SSCurveOpt=Mander   SSHysType=Takeda   SFc=0.00221914221766202   SCap=0.005   FinalSlope=-0.1   FAngle=0   DAngle=0   CoupModType="Modified Darwin-Pecknold"
 
TABLE:  "MATERIAL PROPERTIES 03J - COUPLED NONLINEAR VON MISES DATA"
   Material=A992Fy50   YieldStress=379211.683923368   LinIsoHard=No   LinKinHard=No   NLIsoSaHard=No
 
TABLE:  "MATERIAL PROPERTIES 06 - DAMPING PARAMETERS"
   Material=4000Psi   ModalRatio=0   VisMass=0   VisStiff=0   HysMass=0   HysStiff=0
   Material=A992Fy50   ModalRatio=0   VisMass=0   VisStiff=0   HysMass=0   HysStiff=0
   Material=CONC   ModalRatio=0   VisMass=0   VisStiff=0   HysMass=0   HysStiff=0
 
TABLE:  "MATERIAL PROPERTIES 09 - ACCEPTANCE CRITERIA"
   Material=4000Psi   IOTens=0.01   LSTens=0.02   CPTens=0.05   IOComp=-0.003   LSComp=-0.006   CPComp=-0.015   IgnoreTens=Yes
   Material=A992Fy50   IOTens=0.01   LSTens=0.02   CPTens=0.05   IOComp=-0.005   LSComp=-0.01   CPComp=-0.02
   Material=CONC   IOTens=0.01   LSTens=0.02   CPTens=0.05   IOComp=-0.003   LSComp=-0.006   CPComp=-0.015   IgnoreTens=Yes
 
TABLE:  "OPTIONS - COLORS - DISPLAY"
   DeviceType=Screen   Points=Blue   LinesFrame=Blue   LinesFrmDL=Blue   LinesCable=Green   LinesTendon=Green   SpringLinks=Green   Restraints=Green   Releases=Green   Axes=Cyan   Text=Black   ShadowLines=Gray8Dark   GuideLines=Gray8Dark _
        Highlight=Red   Selection=10504778   AreaFillBot=Red   AreaFillTop=16744703   AreaFillSd=Red   AreaEdge=DarkRed   SolidF1=Red   SolidF2=Blue   SolidF3=Green   SolidF4=Yellow   SolidF5=White   SolidF6=Cyan   SolidEdge=DarkRed _
        Floor=Gray4   Background=White   BGLowLeft=White   BGLowRight=White   BGUpRight=White   Darkness=0.5
   DeviceType=Printer   Points=Gray8Dark   LinesFrame=Black   LinesFrmDL=Gray4   LinesCable=Black   LinesTendon=Black   SpringLinks=Gray8Dark   Restraints=Gray8Dark   Releases=Gray4   Axes=Black   Text=Black   ShadowLines=Gray4 _
        GuideLines=Gray4   Highlight=Black   Selection=Black   AreaFillBot=Gray4   AreaFillTop=Gray8Dark   AreaFillSd=Gray4   AreaEdge=Black   SolidF1=Gray1Light   SolidF2=Gray2   SolidF3=Gray3   SolidF4=Gray4   SolidF5=Gray5 _
        SolidF6=Gray6   SolidEdge=Black   Floor=Gray4   Background=White   BGLowLeft=White   BGLowRight=White   BGUpRight=White   Darkness=0.5
   DeviceType="Color Printer"   Points=Blue   LinesFrame=Blue   LinesFrmDL=Blue   LinesCable=Green   LinesTendon=Green   SpringLinks=Green   Restraints=Green   Releases=Green   Axes=Cyan   Text=Black   ShadowLines=Gray8Dark _
        GuideLines=Gray8Dark   Highlight=Red   Selection=10504778   AreaFillBot=Red   AreaFillTop=16744703   AreaFillSd=Red   AreaEdge=DarkRed   SolidF1=Red   SolidF2=Blue   SolidF3=Green   SolidF4=Yellow   SolidF5=White   SolidF6=Cyan _
        SolidEdge=DarkRed   Floor=Gray4   Background=White   BGLowLeft=White   BGLowRight=White   BGUpRight=White   Darkness=0.5
 
TABLE:  "OPTIONS - COLORS - OUTPUT"
   DeviceType=Screen   Contour1=13107400   Contour2=6553828   Contour3=Red   Contour4=16639   Contour5=Orange   Contour6=43775   Contour7=54527   Contour8=Yellow   Contour9=65408   Contour10=Green   Contour11=8453888   Contour12=Cyan _
        Contour13=16755200   Contour14=16733440   Contour15=Blue   Transpare=0   Ratio1=Cyan   Ratio2=Green   Ratio3=Yellow   Ratio4=Orange   Ratio5=Red   RatioNotD=Gray4   RatioNotC=Red   RatioVal1=0.5   RatioVal2=0.7   RatioVal3=0.9 _
        RatioVal4=1   DFillPos=Blue   DFillNeg=Red   DFillRPos=Green   DFillRNeg=Green
   DeviceType=Printer   Contour1=Black   Contour2=3158064   Contour3=4210752   Contour4=5263440   Contour5=6316128   Contour6=7368816   Contour7=Gray8Dark   Contour8=Gray7   Contour9=Gray6   Contour10=Gray5   Contour11=Gray4 _
        Contour12=Gray3   Contour13=Gray2   Contour14=Gray1Light   Contour15=White   Transpare=0   Ratio1=Gray2   Ratio2=Gray4   Ratio3=Gray8Dark   Ratio4=4210752   Ratio5=Black   RatioNotD=Gray4   RatioNotC=Black   RatioVal1=0.5 _
        RatioVal2=0.7   RatioVal3=0.9   RatioVal4=1   DFillPos=Gray8Dark   DFillNeg=Gray8Dark   DFillRPos=4210752   DFillRNeg=4210752
   DeviceType="Color Printer"   Contour1=13107400   Contour2=6553828   Contour3=Red   Contour4=16639   Contour5=Orange   Contour6=43775   Contour7=54527   Contour8=Yellow   Contour9=65408   Contour10=Green   Contour11=8453888 _
        Contour12=Cyan   Contour13=16755200   Contour14=16733440   Contour15=Blue   Transpare=0   Ratio1=Cyan   Ratio2=Green   Ratio3=Yellow   Ratio4=Orange   Ratio5=Red   RatioNotD=Gray4   RatioNotC=Red   RatioVal1=0.5   RatioVal2=0.7 _
        RatioVal3=0.9   RatioVal4=1   DFillPos=Blue   DFillNeg=Red   DFillRPos=Green   DFillRNeg=Green
 
TABLE:  "PREFERENCES - ALUMINUM DESIGN - AA 2015"
   THDesign=Envelopes   SRatioLimit=1   Provision=LRFD   LatFact=1.33333333333333   UseLatFact=No   Bridge=No   PhiTy=0.9   PhiTr=0.75   PhiC=0.9   PhiBo=0.9   PhiBr=0.75   PhiVo=0.9   PhiVr=0.75
 
TABLE:  "PREFERENCES - COLD FORMED DESIGN - AISI-16"
   THDesign=Envelopes   FrameType="Braced Frame"   SRatioLimit=1   SOMethod="General 2nd Order"   Provision=LRFD   LatFact=1.33333333333333   UseLatFact=No   PhiTy=0.9   PhiTr=0.75   PhiC=0.85   PhiB=0.9   PhiBPipe=0.95   PhiV=0.95
 
TABLE:  "PREFERENCES - CONCRETE DESIGN - ACI 318-19"
   THDesign=Envelopes   NumCurves=24   NumPoints=11   MinEccen=Yes   BCCDesign=Yes   IgnoreBPu=Yes   CTorsion=Yes   PatLLF=0.75   UFLimit=0.95   SeisCat=D   Rho=1   Sds=0.5   PhiT=0.9   PhiCTied=0.65   PhiCSpiral=0.75   PhiV=0.75 _
        PhiVSeismic=0.6   PhiVJoint=0.85   TanTheta=1
 
TABLE:  "PREFERENCES - CONCRETE SHELL DESIGN - EUROCODE 2-2004"
   Country="CEN Default"   GammaS=1.15   GammaC=1.5   AlphaCC=1   AlphaCT=1   CrackCond="Program Determined"   ShrDesMet="Method 1"   CotTheta=1
 
TABLE:  "PREFERENCES - DIMENSIONAL"
   MergeTol=0.001   FineGrid=0.25   Nudge=0.25   SelectTol=3   SnapTol=12   SLineThick=1   PLineThick=4   MaxFont=8   MinFont=3   AutoZoom=10   ShrinkFact=70   TextFileLen=240
 
TABLE:  "PREFERENCES - STEEL DESIGN - AISC 360-16"
   THDesign=Envelopes   FrameType=SMF   PatLLF=0.75   SRatioLimit=0.95   MaxIter=1   SDC=D   SeisCode=No   SeisLoad=No   ImpFactor=1   SystemRho=1   SystemSds=0.5   SystemR=8   SystemCd=5.5   Omega0=3   Provision=LRFD _
        AMethod="Direct Analysis"   SOMethod="General 2nd Order"   SRMethod="Tau-b Fixed"   NLCoeff=0.002   PhiB=0.9   PhiC=0.9   PhiTY=0.9   PhiTF=0.75   PhiV=0.9   PhiVRolledI=1   PhiVT=0.9   PlugWeld=Yes   HSSWelding=ERW   HSSReduceT=No _
        CheckDefl=No   DLRat=120   SDLAndLLRat=120   LLRat=360   TotalRat=240   NetRat=240
 
TABLE:  "PROGRAM CONTROL"
   ProgramName=SAP2000   Version=24.1.0   CurrUnits="KN, m, C"   SteelCode="AISC 360-16"   ConcCode="ACI 318-19"   AlumCode="AA 2015"   ColdCode=AISI-16   RegenHinge=Yes
 
TABLE:  "PROJECT INFORMATION"
   Item="Company Name"
   Item="Client Name"
   Item="Project Name"
   Item="Project Number"
   Item="Model Name"
   Item="Model Description"
   Item="Revision Number"
   Item="Frame Type"
   Item=Engineer
   Item=Checker
   Item=Supervisor
   Item="Issue Code"
   Item="Design Code"
 
TABLE:  "REBAR SIZES"
   RebarID=#2   Area=3.2258E-05   Diameter=0.00635
   RebarID=#3   Area=7.09675996154547E-05   Diameter=0.009525
   RebarID=#4   Area=0.000129032001922727   Diameter=0.0127
   RebarID=#5   Area=0.000199999601538181   Diameter=0.015875
   RebarID=#6   Area=0.000283870398461819   Diameter=0.01905
   RebarID=#7   Area=0.000387096015381813   Diameter=0.022225
   RebarID=#8   Area=0.000509676413843632   Diameter=0.0254
   RebarID=#9   Area=0.00064516   Diameter=0.0286512005329132
   RebarID=#10   Area=0.00081935318769455   Diameter=0.0322579995155334
   RebarID=#11   Area=0.00100644956308365   Diameter=0.0358139991521835
   RebarID=#14   Area=0.00145161   Diameter=0.0430021989583969
   RebarID=#18   Area=0.00258064   Diameter=0.0573277992248535
   RebarID=10M   Area=0.000100000002655387   Diameter=0.011300000667572
   RebarID=15M   Area=0.000200000005310774   Diameter=0.0159999999403954
   RebarID=20M   Area=0.000300000017579794   Diameter=0.0194999997854233
   RebarID=25M   Area=0.000500000022890568   Diameter=0.0252000016093254
   RebarID=30M   Area=0.000700000008974075   Diameter=0.0299000008821487
   RebarID=35M   Area=0.00100000004578114   Diameter=0.0357000011444092
   RebarID=45M   Area=0.00150000010712624   Diameter=0.0437000003576279
   RebarID=55M   Area=0.00250000007599831   Diameter=0.0564000033855438
   RebarID=6d   Area=2.83000004149973E-05   Diameter=0.006000000166893
   RebarID=8d   Area=5.02999995571375E-05   Diameter=0.00799999997019768
   RebarID=10d   Area=7.85000013634562E-05   Diameter=0.00999999977350235
   RebarID=12d   Area=0.000113000009249449   Diameter=0.012000000333786
   RebarID=14d   Area=0.000154000010818839   Diameter=0.0140000008940697
   RebarID=16d   Area=0.000201000015431643   Diameter=0.0159999999403954
   RebarID=20d   Area=0.000314000005453825   Diameter=0.0199999995470047
   RebarID=25d   Area=0.000491000008711815   Diameter=0.0250000001907349
   RebarID=26d   Area=0.000531000029001236   Diameter=0.0259999997138977
   RebarID=28d   Area=0.000616000043275356   Diameter=0.0280000017881393
   RebarID=N12   Area=0.000113000009249449   Diameter=0.012000000333786
   RebarID=N16   Area=0.000201000015431643   Diameter=0.0159999999403954
   RebarID=N20   Area=0.000314000005453825   Diameter=0.0199999995470047
   RebarID=N24   Area=0.000452000036997795   Diameter=0.024000000667572
   RebarID=N28   Area=0.000616000043275356   Diameter=0.0280000017881393
   RebarID=N32   Area=0.00080400006172657   Diameter=0.0319999998807907
   RebarID=N36   Area=0.00102000001747131   Diameter=0.036000001001358
 
END TABLE DATA
