File C:\Users\j-b-j\Documents\Calcpad-7.5.7\awatif-2.0.0\tests\results\comp_type3.$2k was saved on m/d/yy at h:mm:ss
 
TABLE:  "ACTIVE DEGREES OF FREEDOM"
   UX=Yes   UY=Yes   UZ=Yes   RX=Yes   RY=Yes   RZ=Yes
 
TABLE:  "ANALYSIS OPTIONS"
   Solver=Advanced   SolverProc=Auto   Force32Bit=No   StiffCase=None   GeomMod=None   HingeOpt="In Elements"   NumAThreads=0   MaxFileSize=0   NumDThreads=0   NumRThreads=0   UseMMFiles="Program Determined"   AllowDiff=No
 
TABLE:  "AREA LOADS - UNIFORM"
   Area=A1   LoadPat=CARGA   CoordSys=GLOBAL   Dir=Z   UnifLoad=10
   Area=A2   LoadPat=CARGA   CoordSys=GLOBAL   Dir=Z   UnifLoad=10
   Area=A3   LoadPat=CARGA   CoordSys=GLOBAL   Dir=Z   UnifLoad=10
   Area=A4   LoadPat=CARGA   CoordSys=GLOBAL   Dir=Z   UnifLoad=10
   Area=A5   LoadPat=CARGA   CoordSys=GLOBAL   Dir=Z   UnifLoad=10
   Area=A6   LoadPat=CARGA   CoordSys=GLOBAL   Dir=Z   UnifLoad=10
   Area=A7   LoadPat=CARGA   CoordSys=GLOBAL   Dir=Z   UnifLoad=10
   Area=A8   LoadPat=CARGA   CoordSys=GLOBAL   Dir=Z   UnifLoad=10
   Area=A9   LoadPat=CARGA   CoordSys=GLOBAL   Dir=Z   UnifLoad=10
   Area=A10   LoadPat=CARGA   CoordSys=GLOBAL   Dir=Z   UnifLoad=10
   Area=A11   LoadPat=CARGA   CoordSys=GLOBAL   Dir=Z   UnifLoad=10
   Area=A12   LoadPat=CARGA   CoordSys=GLOBAL   Dir=Z   UnifLoad=10
   Area=A13   LoadPat=CARGA   CoordSys=GLOBAL   Dir=Z   UnifLoad=10
   Area=A14   LoadPat=CARGA   CoordSys=GLOBAL   Dir=Z   UnifLoad=10
   Area=A15   LoadPat=CARGA   CoordSys=GLOBAL   Dir=Z   UnifLoad=10
   Area=A16   LoadPat=CARGA   CoordSys=GLOBAL   Dir=Z   UnifLoad=10
   Area=A17   LoadPat=CARGA   CoordSys=GLOBAL   Dir=Z   UnifLoad=10
   Area=A18   LoadPat=CARGA   CoordSys=GLOBAL   Dir=Z   UnifLoad=10
   Area=A19   LoadPat=CARGA   CoordSys=GLOBAL   Dir=Z   UnifLoad=10
   Area=A20   LoadPat=CARGA   CoordSys=GLOBAL   Dir=Z   UnifLoad=10
# ... 4 like lines cut
 
TABLE:  "AREA SECTION ASSIGNMENTS"
   Area=A1   Section=PLACA   MatProp=Default
   Area=A2   Section=PLACA   MatProp=Default
   Area=A3   Section=PLACA   MatProp=Default
   Area=A4   Section=PLACA   MatProp=Default
   Area=A5   Section=PLACA   MatProp=Default
   Area=A6   Section=PLACA   MatProp=Default
   Area=A7   Section=PLACA   MatProp=Default
   Area=A8   Section=PLACA   MatProp=Default
   Area=A9   Section=PLACA   MatProp=Default
   Area=A10   Section=PLACA   MatProp=Default
   Area=A11   Section=PLACA   MatProp=Default
   Area=A12   Section=PLACA   MatProp=Default
   Area=A13   Section=PLACA   MatProp=Default
   Area=A14   Section=PLACA   MatProp=Default
   Area=A15   Section=PLACA   MatProp=Default
   Area=A16   Section=PLACA   MatProp=Default
   Area=A17   Section=PLACA   MatProp=Default
   Area=A18   Section=PLACA   MatProp=Default
   Area=A19   Section=PLACA   MatProp=Default
   Area=A20   Section=PLACA   MatProp=Default
# ... 4 like lines cut
 
TABLE:  "AREA SECTION PROPERTIES"
   Section=PLACA   Material=CONC   MatAngle=0   AreaType=Shell   Type=Plate-Thin   Thickness=0.1   BendThick=0.1   Color=Yellow   F11Mod=1   F22Mod=1   F12Mod=1   M11Mod=1   M22Mod=1   M12Mod=1   V13Mod=1   V23Mod=1   MMod=1   WMod=1
 
TABLE:  "AREA SECTION PROPERTY DESIGN PARAMETERS"
   Section=PLACA   RebarMat=None   RebarOpt=Default
 
TABLE:  "AREA SECTION PROPERTY - TIME DEPENDENT"
   Section=PLACA   TypeSize=Auto   AutoSFSize=1
 
TABLE:  "AUTO WAVE 3 - WAVE CHARACTERISTICS - GENERAL"
   WaveChar=Default   WaveType="From Theory"   KinFactor=1   SWaterDepth=45   WaveHeight=18   WavePeriod=12   WaveTheory=Linear
 
TABLE:  "CASE - MODAL 1 - GENERAL"
   Case=MODAL   ModeType=Eigen   MaxNumModes=12   MinNumModes=1   EigenShift=0   EigenCutoff=0   EigenTol=1E-09   AutoShift=Yes
 
TABLE:  "CASE - STATIC 1 - LOAD ASSIGNMENTS"
   Case=DEAD   LoadType="Load pattern"   LoadName=DEAD   LoadSF=1
   Case=CARGA   LoadType="Load pattern"   LoadName=CARGA   LoadSF=1
 
TABLE:  "CONNECTIVITY - AREA"
   Area=A1   Joint1=1   Joint2=2   Joint3=9   Joint4=8   GUID=c0deb8f3-cee2-4b16-8283-f7f49dadbc0c
   Area=A2   Joint1=2   Joint2=3   Joint3=10   Joint4=9   GUID=d61daff1-6695-499f-a3f8-7b0d3772f64c
   Area=A3   Joint1=3   Joint2=4   Joint3=11   Joint4=10   GUID=d6fc4901-7d3b-44c2-865c-d8de58fd6702
   Area=A4   Joint1=4   Joint2=5   Joint3=12   Joint4=11   GUID=099707f0-8da1-4e9c-91e7-d68a92e19497
   Area=A5   Joint1=5   Joint2=6   Joint3=13   Joint4=12   GUID=520df3e0-5328-493b-9e7a-eb166a0e7f92
   Area=A6   Joint1=6   Joint2=7   Joint3=14   Joint4=13   GUID=0d3d27f0-97cc-42b3-b2ce-76a70ba7f07b
   Area=A7   Joint1=8   Joint2=9   Joint3=16   Joint4=15   GUID=a6092fea-4e0c-4c2f-bc80-5cebb88d00c9
   Area=A8   Joint1=9   Joint2=10   Joint3=17   Joint4=16   GUID=3c257993-0ba0-44f0-b407-73631a938f05
   Area=A9   Joint1=10   Joint2=11   Joint3=18   Joint4=17   GUID=0b9279e7-51c2-4dfc-bb02-51c98c0a2f2a
   Area=A10   Joint1=11   Joint2=12   Joint3=19   Joint4=18   GUID=2806c89a-9ec7-4888-b271-b969eeed331e
   Area=A11   Joint1=12   Joint2=13   Joint3=20   Joint4=19   GUID=b81ca720-b175-476a-8b6f-31f843d86139
   Area=A12   Joint1=13   Joint2=14   Joint3=21   Joint4=20   GUID=b298145b-a493-4756-8a5e-f8a02942e8b4
   Area=A13   Joint1=15   Joint2=16   Joint3=23   Joint4=22   GUID=b2370de7-f8e6-4b01-81a2-d8eaec2ecc68
   Area=A14   Joint1=16   Joint2=17   Joint3=24   Joint4=23   GUID=cc7ac19e-8d9c-45b3-8df9-9d220f410dbf
   Area=A15   Joint1=17   Joint2=18   Joint3=25   Joint4=24   GUID=8c2c4656-49a9-4696-a167-05315d243ead
   Area=A16   Joint1=18   Joint2=19   Joint3=26   Joint4=25   GUID=cd653453-521c-4061-91aa-f3b231956403
   Area=A17   Joint1=19   Joint2=20   Joint3=27   Joint4=26   GUID=6cccb880-7843-4055-abb6-42350f2d4e4a
   Area=A18   Joint1=20   Joint2=21   Joint3=28   Joint4=27   GUID=ccca1356-ea87-4077-832f-bb0d45e44f1f
   Area=A19   Joint1=22   Joint2=23   Joint3=30   Joint4=29   GUID=844a78b2-910b-46ed-9488-150437726d23
   Area=A20   Joint1=23   Joint2=24   Joint3=31   Joint4=30   GUID=6c659770-9dcb-4145-903d-e16a23a6e1ac
   Area=A21   Joint1=24   Joint2=25   Joint3=32   Joint4=31   GUID=2586ab0e-467f-4b53-90b0-a3556da889c9
   Area=A22   Joint1=25   Joint2=26   Joint3=33   Joint4=32   GUID=300c9d44-fd04-45d0-8b70-365a32cc2db3
   Area=A23   Joint1=26   Joint2=27   Joint3=34   Joint4=33   GUID=8cc90310-ae61-4aac-9c0c-26468173965b
   Area=A24   Joint1=27   Joint2=28   Joint3=35   Joint4=34   GUID=e6a01e22-bd50-4a88-bcbc-41c81a40df82
 
TABLE:  "COORDINATE SYSTEMS"
   Name=GLOBAL   Type=Cartesian   X=0   Y=0   Z=0   AboutZ=0   AboutY=0   AboutX=0
 
TABLE:  "DATABASE DOCUMENTATION"
 
TABLE:  "DATABASE FORMAT TYPES"
   UnitsCurr=Yes   OverrideE=No
 
TABLE:  "FUNCTION - PLOT FUNCTIONS"
   PlotFunc="Input Energy"   Type=Energy   Component=Input   Mode=All
 
TABLE:  "FUNCTION - POWER SPECTRAL DENSITY - USER"
   Name=UNIFPSD   Frequency=0   Value=1
   Name=UNIFPSD   Frequency=1   Value=1
 
TABLE:  "FUNCTION - RESPONSE SPECTRUM - USER"
   Name=UNIFRS   Period=0   Accel=1   FuncDamp=0.05
   Name=UNIFRS   Period=1   Accel=1
 
TABLE:  "FUNCTION - STEADY STATE - USER"
   Name=UNIFSS   Frequency=0   Value=1
   Name=UNIFSS   Frequency=1   Value=1
 
TABLE:  "FUNCTION - TIME HISTORY - USER"
   Name=RAMPTH   Time=0   Value=0
   Name=RAMPTH   Time=1   Value=1
   Name=RAMPTH   Time=4   Value=1
   Name=UNIFTH   Time=0   Value=1
   Name=UNIFTH   Time=1   Value=1
 
TABLE:  "GROUPS 1 - DEFINITIONS"
   GroupName=ALL   Selection=Yes   SectionCut=Yes   Steel=Yes   Concrete=Yes   Aluminum=Yes   ColdFormed=Yes   Stage=Yes   Bridge=Yes   AutoSeismic=No   AutoWind=No   SelDesSteel=No   SelDesAlum=No   SelDesCold=No   MassWeight=Yes   Color=Red
 
TABLE:  "JOINT COORDINATES"
   Joint=1   CoordSys=GLOBAL   CoordType=Cartesian   XorR=0   Y=0   Z=0   SpecialJt=Yes   GUID=c5a103cb-a26c-43b0-8134-a3a8a9d27e21
   Joint=2   CoordSys=GLOBAL   CoordType=Cartesian   XorR=1   Y=0   Z=0   SpecialJt=Yes   GUID=f14db3ad-effe-40d4-a8d1-bcb8e19b26eb
   Joint=3   CoordSys=GLOBAL   CoordType=Cartesian   XorR=2   Y=0   Z=0   SpecialJt=Yes   GUID=57c90d98-3998-48a7-aabe-add485aa94e2
   Joint=4   CoordSys=GLOBAL   CoordType=Cartesian   XorR=3   Y=0   Z=0   SpecialJt=Yes   GUID=64d16ed5-3abc-48fa-90f2-83c692a772a2
   Joint=5   CoordSys=GLOBAL   CoordType=Cartesian   XorR=4   Y=0   Z=0   SpecialJt=Yes   GUID=76fc452b-78da-4dbf-8140-6faa9e210e01
   Joint=6   CoordSys=GLOBAL   CoordType=Cartesian   XorR=5   Y=0   Z=0   SpecialJt=Yes   GUID=1be94d61-a525-464f-97b3-05fca94e4f87
   Joint=7   CoordSys=GLOBAL   CoordType=Cartesian   XorR=6   Y=0   Z=0   SpecialJt=Yes   GUID=e8bbb9c4-0ab6-4413-8a10-bd6f0a8ca2fc
   Joint=8   CoordSys=GLOBAL   CoordType=Cartesian   XorR=0   Y=1   Z=0   SpecialJt=Yes   GUID=36a2176b-6b81-44bb-b6d2-836a719c16b3
   Joint=9   CoordSys=GLOBAL   CoordType=Cartesian   XorR=1   Y=1   Z=0   SpecialJt=Yes   GUID=fdcb7693-4f7e-4aa2-8114-165d699e25fc
   Joint=10   CoordSys=GLOBAL   CoordType=Cartesian   XorR=2   Y=1   Z=0   SpecialJt=Yes   GUID=5baa0589-677a-49fb-8b13-e7bc62192536
   Joint=11   CoordSys=GLOBAL   CoordType=Cartesian   XorR=3   Y=1   Z=0   SpecialJt=Yes   GUID=2fc024a9-8e2d-49aa-b613-b944f458b1b1
   Joint=12   CoordSys=GLOBAL   CoordType=Cartesian   XorR=4   Y=1   Z=0   SpecialJt=Yes   GUID=6c47ae45-a5a7-4467-80b4-4892148b3cac
   Joint=13   CoordSys=GLOBAL   CoordType=Cartesian   XorR=5   Y=1   Z=0   SpecialJt=Yes   GUID=bbbe9b84-4331-4911-817a-aa62b7bf2c94
   Joint=14   CoordSys=GLOBAL   CoordType=Cartesian   XorR=6   Y=1   Z=0   SpecialJt=Yes   GUID=4127c3a1-0b6e-4df5-94e4-034631fdc654
   Joint=15   CoordSys=GLOBAL   CoordType=Cartesian   XorR=0   Y=2   Z=0   SpecialJt=Yes   GUID=465e344c-95c7-4ece-b6cd-5d356409aee3
   Joint=16   CoordSys=GLOBAL   CoordType=Cartesian   XorR=1   Y=2   Z=0   SpecialJt=Yes   GUID=0f5665a6-1655-4fc2-a21d-5859b7d3e648
   Joint=17   CoordSys=GLOBAL   CoordType=Cartesian   XorR=2   Y=2   Z=0   SpecialJt=Yes   GUID=a7e047b9-53bc-46f0-a9af-9afe71b22d3a
   Joint=18   CoordSys=GLOBAL   CoordType=Cartesian   XorR=3   Y=2   Z=0   SpecialJt=Yes   GUID=ec8d95da-73cd-4318-b5dd-36645fd2b2d6
   Joint=19   CoordSys=GLOBAL   CoordType=Cartesian   XorR=4   Y=2   Z=0   SpecialJt=Yes   GUID=d0410e77-4d1c-4a84-a4ff-f5e5ed755b98
   Joint=20   CoordSys=GLOBAL   CoordType=Cartesian   XorR=5   Y=2   Z=0   SpecialJt=Yes   GUID=fa0ae74f-3eb8-4025-a43e-d8be949b6297
   Joint=21   CoordSys=GLOBAL   CoordType=Cartesian   XorR=6   Y=2   Z=0   SpecialJt=Yes   GUID=15548878-ffe5-4276-9405-76f3531bbcc4
   Joint=22   CoordSys=GLOBAL   CoordType=Cartesian   XorR=0   Y=3   Z=0   SpecialJt=Yes   GUID=37cc0642-fd2b-423c-b40b-b08ef685eceb
   Joint=23   CoordSys=GLOBAL   CoordType=Cartesian   XorR=1   Y=3   Z=0   SpecialJt=Yes   GUID=c369406f-d8a2-40f6-8b06-d8fcf3bc0b13
   Joint=24   CoordSys=GLOBAL   CoordType=Cartesian   XorR=2   Y=3   Z=0   SpecialJt=Yes   GUID=0911b993-0e27-4233-ba4d-ddb69ca293bf
   Joint=25   CoordSys=GLOBAL   CoordType=Cartesian   XorR=3   Y=3   Z=0   SpecialJt=Yes   GUID=c5414f9c-1a06-4cd0-841f-7dc4d9ee4dc9
   Joint=26   CoordSys=GLOBAL   CoordType=Cartesian   XorR=4   Y=3   Z=0   SpecialJt=Yes   GUID=d06ea52f-b018-4004-8c0e-c9862f5974cf
   Joint=27   CoordSys=GLOBAL   CoordType=Cartesian   XorR=5   Y=3   Z=0   SpecialJt=Yes   GUID=c1c4b353-e945-4104-bb94-ecd58c333056
   Joint=28   CoordSys=GLOBAL   CoordType=Cartesian   XorR=6   Y=3   Z=0   SpecialJt=Yes   GUID=bb8eb1f4-3d18-4dd0-bbf1-6c95d9e2131c
   Joint=29   CoordSys=GLOBAL   CoordType=Cartesian   XorR=0   Y=4   Z=0   SpecialJt=Yes   GUID=e26d72f7-1364-4818-a3c8-7d4bff43eea7
   Joint=30   CoordSys=GLOBAL   CoordType=Cartesian   XorR=1   Y=4   Z=0   SpecialJt=Yes   GUID=101a9d48-d7d0-4064-b19c-e1f175905c01
   Joint=31   CoordSys=GLOBAL   CoordType=Cartesian   XorR=2   Y=4   Z=0   SpecialJt=Yes   GUID=35f9c3e6-455c-4472-93d5-fc466f502c72
   Joint=32   CoordSys=GLOBAL   CoordType=Cartesian   XorR=3   Y=4   Z=0   SpecialJt=Yes   GUID=a72eb8e2-1e13-486a-a8a8-a6ff8f4e7bbf
   Joint=33   CoordSys=GLOBAL   CoordType=Cartesian   XorR=4   Y=4   Z=0   SpecialJt=Yes   GUID=b05e3bb0-c2a0-49e0-ad2f-4f241abf0cf5
   Joint=34   CoordSys=GLOBAL   CoordType=Cartesian   XorR=5   Y=4   Z=0   SpecialJt=Yes   GUID=aacfcce9-f3e7-400e-aa00-c615c9e2ed4b
   Joint=35   CoordSys=GLOBAL   CoordType=Cartesian   XorR=6   Y=4   Z=0   SpecialJt=Yes   GUID=28a95a97-039a-41f8-9718-62fdea77a0ab
 
TABLE:  "JOINT PATTERN DEFINITIONS"
   Pattern=Default
 
TABLE:  "JOINT RESTRAINT ASSIGNMENTS"
   Joint=1   U1=No   U2=No   U3=Yes   R1=No   R2=No   R3=No
   Joint=2   U1=No   U2=No   U3=Yes   R1=No   R2=No   R3=No
   Joint=3   U1=No   U2=No   U3=Yes   R1=No   R2=No   R3=No
   Joint=4   U1=No   U2=No   U3=Yes   R1=No   R2=No   R3=No
   Joint=5   U1=No   U2=No   U3=Yes   R1=No   R2=No   R3=No
   Joint=6   U1=No   U2=No   U3=Yes   R1=No   R2=No   R3=No
   Joint=7   U1=No   U2=No   U3=Yes   R1=No   R2=No   R3=No
   Joint=8   U1=No   U2=No   U3=Yes   R1=No   R2=No   R3=No
   Joint=14   U1=No   U2=No   U3=Yes   R1=No   R2=No   R3=No
   Joint=15   U1=No   U2=No   U3=Yes   R1=No   R2=No   R3=No
   Joint=21   U1=No   U2=No   U3=Yes   R1=No   R2=No   R3=No
   Joint=22   U1=No   U2=No   U3=Yes   R1=No   R2=No   R3=No
   Joint=28   U1=No   U2=No   U3=Yes   R1=No   R2=No   R3=No
   Joint=29   U1=No   U2=No   U3=Yes   R1=No   R2=No   R3=No
   Joint=30   U1=No   U2=No   U3=Yes   R1=No   R2=No   R3=No
   Joint=31   U1=No   U2=No   U3=Yes   R1=No   R2=No   R3=No
   Joint=32   U1=No   U2=No   U3=Yes   R1=No   R2=No   R3=No
   Joint=33   U1=No   U2=No   U3=Yes   R1=No   R2=No   R3=No
   Joint=34   U1=No   U2=No   U3=Yes   R1=No   R2=No   R3=No
   Joint=35   U1=No   U2=No   U3=Yes   R1=No   R2=No   R3=No
 
TABLE:  "LOAD CASE DEFINITIONS"
   Case=DEAD   Type=LinStatic   InitialCond=Zero   DesTypeOpt="Prog Det"   DesignType=Dead   DesActOpt="Prog Det"   DesignAct=Non-Composite   AutoType=None   RunCase=Yes   GUID=8849eac4-8f6c-44af-b918-6ffb4c541f53
   Case=MODAL   Type=LinModal   InitialCond=Zero   DesTypeOpt="Prog Det"   DesignType=Other   DesActOpt="Prog Det"   DesignAct=Other   AutoType=None   RunCase=Yes   GUID=b208d4b4-3900-45e4-808d-d6ddb86ab6ba
   Case=CARGA   Type=LinStatic   InitialCond=Zero   DesTypeOpt="Prog Det"   DesignType=Other   DesActOpt="Prog Det"   DesignAct=Other   AutoType=None   RunCase=Yes   GUID=2fb5f9d7-c2c1-4422-90eb-2525da3884d0
 
TABLE:  "LOAD PATTERN DEFINITIONS"
   LoadPat=DEAD   DesignType=Dead   SelfWtMult=1   GUID=b4d5d6c1-fda6-4b53-908e-4598299dfe5e
   LoadPat=CARGA   DesignType=Other   SelfWtMult=1   GUID=ad777b91-d824-4243-9283-2362b6442db6
 
TABLE:  "MASS SOURCE"
   MassSource=MSSSRC1   Elements=Yes   Masses=Yes   Loads=No   IsDefault=Yes
 
TABLE:  "MATERIAL PROPERTIES 01 - GENERAL"
   Material=4000Psi   Type=Concrete   Grade="f'c 4000 psi"   SymType=Isotropic   TempDepend=No   Color=Red   GUID=06c5a80e-2060-48b5-84dd-552c7188171b   Notes="Customary f'c 4000 psi 2/4/2026 6:13:22 AM"
   Material=A992Fy50   Type=Steel   Grade="Grade 50"   SymType=Isotropic   TempDepend=No   Color=Cyan   Notes="ASTM A992 Grade 50 2/4/2026 6:13:22 AM"
   Material=CONC   Type=Concrete   SymType=Isotropic   TempDepend=No   Color=Magenta
 
TABLE:  "MATERIAL PROPERTIES 02 - BASIC MECHANICAL PROPERTIES"
   Material=4000Psi   UnitWeight=23.5631216161854   UnitMass=2.40276960558926   E1=24855578.0600518   G12=10356490.8583549   U12=0.2   A1=9.89999952793124E-06
   Material=A992Fy50   UnitWeight=76.9728639422648   UnitMass=7.84904737995992   E1=199947978.795958   G12=76903068.767676   U12=0.3   A1=1.16999994421006E-05
   Material=CONC   UnitWeight=23.563121614979   UnitMass=2.40276960611018   E1=35000000   G12=15217391.3043478   U12=0.15   A1=1E-05
 
TABLE:  "MATERIAL PROPERTIES 03A - STEEL DATA"
   Material=A992Fy50   Fy=344737.894475789   Fu=448159.262818526   EffFy=379211.683923368   EffFu=492975.189100378   SSCurveOpt=Simple   SSHysType=Kinematic   SHard=0.015   SMax=0.11   SRup=0.17   FinalSlope=-0.1   CoupModType="Von Mises"
 
TABLE:  "MATERIAL PROPERTIES 03B - CONCRETE DATA"
   Material=4000Psi   Fc=27579.0315580631   eFc=27579.0315580631   LtWtConc=No   SSCurveOpt=Mander   SSHysType=Takeda   SFc=0.00221914   SCap=0.005   FinalSlope=-0.1   FAngle=0   DAngle=0   CoupModType="Modified Darwin-Pecknold"
   Material=CONC   Fc=27579.0315580631   eFc=27579.0315580631   LtWtConc=No   SSCurveOpt=Mander   SSHysType=Takeda   SFc=0.00221914221766202   SCap=0.005   FinalSlope=-0.1   FAngle=0   DAngle=0   CoupModType="Modified Darwin-Pecknold"
 
TABLE:  "MATERIAL PROPERTIES 03J - COUPLED NONLINEAR VON MISES DATA"
   Material=A992Fy50   YieldStress=379211.683923368   LinIsoHard=No   LinKinHard=No   NLIsoSaHard=No
 
TABLE:  "MATERIAL PROPERTIES 06 - DAMPING PARAMETERS"
   Material=4000Psi   ModalRatio=0   VisMass=0   VisStiff=0   HysMass=0   HysStiff=0
   Material=A992Fy50   ModalRatio=0   VisMass=0   VisStiff=0   HysMass=0   HysStiff=0
   Material=CONC   ModalRatio=0   VisMass=0   VisStiff=0   HysMass=0   HysStiff=0
 
TABLE:  "MATERIAL PROPERTIES 09 - ACCEPTANCE CRITERIA"
   Material=4000Psi   IOTens=0.01   LSTens=0.02   CPTens=0.05   IOComp=-0.003   LSComp=-0.006   CPComp=-0.015   IgnoreTens=Yes
   Material=A992Fy50   IOTens=0.01   LSTens=0.02   CPTens=0.05   IOComp=-0.005   LSComp=-0.01   CPComp=-0.02
   Material=CONC   IOTens=0.01   LSTens=0.02   CPTens=0.05   IOComp=-0.003   LSComp=-0.006   CPComp=-0.015   IgnoreTens=Yes
 
TABLE:  "OPTIONS - COLORS - DISPLAY"
   DeviceType=Screen   Points=Blue   LinesFrame=Blue   LinesFrmDL=Blue   LinesCable=Green   LinesTendon=Green   SpringLinks=Green   Restraints=Green   Releases=Green   Axes=Cyan   Text=Black   ShadowLines=Gray8Dark   GuideLines=Gray8Dark _
        Highlight=Red   Selection=10504778   AreaFillBot=Red   AreaFillTop=16744703   AreaFillSd=Red   AreaEdge=DarkRed   SolidF1=Red   SolidF2=Blue   SolidF3=Green   SolidF4=Yellow   SolidF5=White   SolidF6=Cyan   SolidEdge=DarkRed _
        Floor=Gray4   Background=White   BGLowLeft=White   BGLowRight=White   BGUpRight=White   Darkness=0.5
   DeviceType=Printer   Points=Gray8Dark   LinesFrame=Black   LinesFrmDL=Gray4   LinesCable=Black   LinesTendon=Black   SpringLinks=Gray8Dark   Restraints=Gray8Dark   Releases=Gray4   Axes=Black   Text=Black   ShadowLines=Gray4 _
        GuideLines=Gray4   Highlight=Black   Selection=Black   AreaFillBot=Gray4   AreaFillTop=Gray8Dark   AreaFillSd=Gray4   AreaEdge=Black   SolidF1=Gray1Light   SolidF2=Gray2   SolidF3=Gray3   SolidF4=Gray4   SolidF5=Gray5 _
        SolidF6=Gray6   SolidEdge=Black   Floor=Gray4   Background=White   BGLowLeft=White   BGLowRight=White   BGUpRight=White   Darkness=0.5
   DeviceType="Color Printer"   Points=Blue   LinesFrame=Blue   LinesFrmDL=Blue   LinesCable=Green   LinesTendon=Green   SpringLinks=Green   Restraints=Green   Releases=Green   Axes=Cyan   Text=Black   ShadowLines=Gray8Dark _
        GuideLines=Gray8Dark   Highlight=Red   Selection=10504778   AreaFillBot=Red   AreaFillTop=16744703   AreaFillSd=Red   AreaEdge=DarkRed   SolidF1=Red   SolidF2=Blue   SolidF3=Green   SolidF4=Yellow   SolidF5=White   SolidF6=Cyan _
        SolidEdge=DarkRed   Floor=Gray4   Background=White   BGLowLeft=White   BGLowRight=White   BGUpRight=White   Darkness=0.5
 
TABLE:  "OPTIONS - COLORS - OUTPUT"
   DeviceType=Screen   Contour1=13107400   Contour2=6553828   Contour3=Red   Contour4=16639   Contour5=Orange   Contour6=43775   Contour7=54527   Contour8=Yellow   Contour9=65408   Contour10=Green   Contour11=8453888   Contour12=Cyan _
        Contour13=16755200   Contour14=16733440   Contour15=Blue   Transpare=0   Ratio1=Cyan   Ratio2=Green   Ratio3=Yellow   Ratio4=Orange   Ratio5=Red   RatioNotD=Gray4   RatioNotC=Red   RatioVal1=0.5   RatioVal2=0.7   RatioVal3=0.9 _
        RatioVal4=1   DFillPos=Blue   DFillNeg=Red   DFillRPos=Green   DFillRNeg=Green
   DeviceType=Printer   Contour1=Black   Contour2=3158064   Contour3=4210752   Contour4=5263440   Contour5=6316128   Contour6=7368816   Contour7=Gray8Dark   Contour8=Gray7   Contour9=Gray6   Contour10=Gray5   Contour11=Gray4 _
        Contour12=Gray3   Contour13=Gray2   Contour14=Gray1Light   Contour15=White   Transpare=0   Ratio1=Gray2   Ratio2=Gray4   Ratio3=Gray8Dark   Ratio4=4210752   Ratio5=Black   RatioNotD=Gray4   RatioNotC=Black   RatioVal1=0.5 _
        RatioVal2=0.7   RatioVal3=0.9   RatioVal4=1   DFillPos=Gray8Dark   DFillNeg=Gray8Dark   DFillRPos=4210752   DFillRNeg=4210752
   DeviceType="Color Printer"   Contour1=13107400   Contour2=6553828   Contour3=Red   Contour4=16639   Contour5=Orange   Contour6=43775   Contour7=54527   Contour8=Yellow   Contour9=65408   Contour10=Green   Contour11=8453888 _
        Contour12=Cyan   Contour13=16755200   Contour14=16733440   Contour15=Blue   Transpare=0   Ratio1=Cyan   Ratio2=Green   Ratio3=Yellow   Ratio4=Orange   Ratio5=Red   RatioNotD=Gray4   RatioNotC=Red   RatioVal1=0.5   RatioVal2=0.7 _
        RatioVal3=0.9   RatioVal4=1   DFillPos=Blue   DFillNeg=Red   DFillRPos=Green   DFillRNeg=Green
 
TABLE:  "PREFERENCES - ALUMINUM DESIGN - AA 2015"
   THDesign=Envelopes   SRatioLimit=1   Provision=LRFD   LatFact=1.33333333333333   UseLatFact=No   Bridge=No   PhiTy=0.9   PhiTr=0.75   PhiC=0.9   PhiBo=0.9   PhiBr=0.75   PhiVo=0.9   PhiVr=0.75
 
TABLE:  "PREFERENCES - COLD FORMED DESIGN - AISI-16"
   THDesign=Envelopes   FrameType="Braced Frame"   SRatioLimit=1   SOMethod="General 2nd Order"   Provision=LRFD   LatFact=1.33333333333333   UseLatFact=No   PhiTy=0.9   PhiTr=0.75   PhiC=0.85   PhiB=0.9   PhiBPipe=0.95   PhiV=0.95
 
TABLE:  "PREFERENCES - CONCRETE DESIGN - ACI 318-19"
   THDesign=Envelopes   NumCurves=24   NumPoints=11   MinEccen=Yes   BCCDesign=Yes   IgnoreBPu=Yes   CTorsion=Yes   PatLLF=0.75   UFLimit=0.95   SeisCat=D   Rho=1   Sds=0.5   PhiT=0.9   PhiCTied=0.65   PhiCSpiral=0.75   PhiV=0.75 _
        PhiVSeismic=0.6   PhiVJoint=0.85   TanTheta=1
 
TABLE:  "PREFERENCES - CONCRETE SHELL DESIGN - EUROCODE 2-2004"
   Country="CEN Default"   GammaS=1.15   GammaC=1.5   AlphaCC=1   AlphaCT=1   CrackCond="Program Determined"   ShrDesMet="Method 1"   CotTheta=1
 
TABLE:  "PREFERENCES - DIMENSIONAL"
   MergeTol=0.001   FineGrid=0.25   Nudge=0.25   SelectTol=3   SnapTol=12   SLineThick=1   PLineThick=4   MaxFont=8   MinFont=3   AutoZoom=10   ShrinkFact=70   TextFileLen=240
 
TABLE:  "PREFERENCES - STEEL DESIGN - AISC 360-16"
   THDesign=Envelopes   FrameType=SMF   PatLLF=0.75   SRatioLimit=0.95   MaxIter=1   SDC=D   SeisCode=No   SeisLoad=No   ImpFactor=1   SystemRho=1   SystemSds=0.5   SystemR=8   SystemCd=5.5   Omega0=3   Provision=LRFD _
        AMethod="Direct Analysis"   SOMethod="General 2nd Order"   SRMethod="Tau-b Fixed"   NLCoeff=0.002   PhiB=0.9   PhiC=0.9   PhiTY=0.9   PhiTF=0.75   PhiV=0.9   PhiVRolledI=1   PhiVT=0.9   PlugWeld=Yes   HSSWelding=ERW   HSSReduceT=No _
        CheckDefl=No   DLRat=120   SDLAndLLRat=120   LLRat=360   TotalRat=240   NetRat=240
 
TABLE:  "PROGRAM CONTROL"
   ProgramName=SAP2000   Version=24.1.0   CurrUnits="KN, m, C"   SteelCode="AISC 360-16"   ConcCode="ACI 318-19"   AlumCode="AA 2015"   ColdCode=AISI-16   RegenHinge=Yes
 
TABLE:  "PROJECT INFORMATION"
   Item="Company Name"
   Item="Client Name"
   Item="Project Name"
   Item="Project Number"
   Item="Model Name"
   Item="Model Description"
   Item="Revision Number"
   Item="Frame Type"
   Item=Engineer
   Item=Checker
   Item=Supervisor
   Item="Issue Code"
   Item="Design Code"
 
TABLE:  "REBAR SIZES"
   RebarID=#2   Area=3.2258E-05   Diameter=0.00635
   RebarID=#3   Area=7.09675996154547E-05   Diameter=0.009525
   RebarID=#4   Area=0.000129032001922727   Diameter=0.0127
   RebarID=#5   Area=0.000199999601538181   Diameter=0.015875
   RebarID=#6   Area=0.000283870398461819   Diameter=0.01905
   RebarID=#7   Area=0.000387096015381813   Diameter=0.022225
   RebarID=#8   Area=0.000509676413843632   Diameter=0.0254
   RebarID=#9   Area=0.00064516   Diameter=0.0286512005329132
   RebarID=#10   Area=0.00081935318769455   Diameter=0.0322579995155334
   RebarID=#11   Area=0.00100644956308365   Diameter=0.0358139991521835
   RebarID=#14   Area=0.00145161   Diameter=0.0430021989583969
   RebarID=#18   Area=0.00258064   Diameter=0.0573277992248535
   RebarID=10M   Area=0.000100000002655387   Diameter=0.011300000667572
   RebarID=15M   Area=0.000200000005310774   Diameter=0.0159999999403954
   RebarID=20M   Area=0.000300000017579794   Diameter=0.0194999997854233
   RebarID=25M   Area=0.000500000022890568   Diameter=0.0252000016093254
   RebarID=30M   Area=0.000700000008974075   Diameter=0.0299000008821487
   RebarID=35M   Area=0.00100000004578114   Diameter=0.0357000011444092
   RebarID=45M   Area=0.00150000010712624   Diameter=0.0437000003576279
   RebarID=55M   Area=0.00250000007599831   Diameter=0.0564000033855438
   RebarID=6d   Area=2.83000004149973E-05   Diameter=0.006000000166893
   RebarID=8d   Area=5.02999995571375E-05   Diameter=0.00799999997019768
   RebarID=10d   Area=7.85000013634562E-05   Diameter=0.00999999977350235
   RebarID=12d   Area=0.000113000009249449   Diameter=0.012000000333786
   RebarID=14d   Area=0.000154000010818839   Diameter=0.0140000008940697
   RebarID=16d   Area=0.000201000015431643   Diameter=0.0159999999403954
   RebarID=20d   Area=0.000314000005453825   Diameter=0.0199999995470047
   RebarID=25d   Area=0.000491000008711815   Diameter=0.0250000001907349
   RebarID=26d   Area=0.000531000029001236   Diameter=0.0259999997138977
   RebarID=28d   Area=0.000616000043275356   Diameter=0.0280000017881393
   RebarID=N12   Area=0.000113000009249449   Diameter=0.012000000333786
   RebarID=N16   Area=0.000201000015431643   Diameter=0.0159999999403954
   RebarID=N20   Area=0.000314000005453825   Diameter=0.0199999995470047
   RebarID=N24   Area=0.000452000036997795   Diameter=0.024000000667572
   RebarID=N28   Area=0.000616000043275356   Diameter=0.0280000017881393
   RebarID=N32   Area=0.00080400006172657   Diameter=0.0319999998807907
   RebarID=N36   Area=0.00102000001747131   Diameter=0.036000001001358
 
END TABLE DATA
