File C:\Users\j-b-j\Documents\Calcpad-7.5.7\awatif-2.0.0\tests\results\espesor_100mm.$2k was saved on m/d/yy at h:mm:ss
 
TABLE:  "ACTIVE DEGREES OF FREEDOM"
   UX=Yes   UY=Yes   UZ=Yes   RX=Yes   RY=Yes   RZ=Yes
 
TABLE:  "ANALYSIS OPTIONS"
   Solver=Advanced   SolverProc=Auto   Force32Bit=No   StiffCase=None   GeomMod=None   HingeOpt="In Elements"   NumAThreads=0   MaxFileSize=0   NumDThreads=0   NumRThreads=0   UseMMFiles="Program Determined"   AllowDiff=No
 
TABLE:  "AREA LOADS - UNIFORM"
   Area=A1   LoadPat=CARGA   CoordSys=Local   Dir=3   UnifLoad=-10
   Area=A2   LoadPat=CARGA   CoordSys=Local   Dir=3   UnifLoad=-10
   Area=A3   LoadPat=CARGA   CoordSys=Local   Dir=3   UnifLoad=-10
   Area=A4   LoadPat=CARGA   CoordSys=Local   Dir=3   UnifLoad=-10
   Area=A5   LoadPat=CARGA   CoordSys=Local   Dir=3   UnifLoad=-10
   Area=A6   LoadPat=CARGA   CoordSys=Local   Dir=3   UnifLoad=-10
   Area=A7   LoadPat=CARGA   CoordSys=Local   Dir=3   UnifLoad=-10
   Area=A8   LoadPat=CARGA   CoordSys=Local   Dir=3   UnifLoad=-10
   Area=A9   LoadPat=CARGA   CoordSys=Local   Dir=3   UnifLoad=-10
   Area=A10   LoadPat=CARGA   CoordSys=Local   Dir=3   UnifLoad=-10
   Area=A11   LoadPat=CARGA   CoordSys=Local   Dir=3   UnifLoad=-10
   Area=A12   LoadPat=CARGA   CoordSys=Local   Dir=3   UnifLoad=-10
   Area=A13   LoadPat=CARGA   CoordSys=Local   Dir=3   UnifLoad=-10
   Area=A14   LoadPat=CARGA   CoordSys=Local   Dir=3   UnifLoad=-10
   Area=A15   LoadPat=CARGA   CoordSys=Local   Dir=3   UnifLoad=-10
   Area=A16   LoadPat=CARGA   CoordSys=Local   Dir=3   UnifLoad=-10
   Area=A17   LoadPat=CARGA   CoordSys=Local   Dir=3   UnifLoad=-10
   Area=A18   LoadPat=CARGA   CoordSys=Local   Dir=3   UnifLoad=-10
   Area=A19   LoadPat=CARGA   CoordSys=Local   Dir=3   UnifLoad=-10
   Area=A20   LoadPat=CARGA   CoordSys=Local   Dir=3   UnifLoad=-10
# ... 4 like lines cut
 
TABLE:  "AREA SECTION ASSIGNMENTS"
   Area=A1   Section=PLACA   MatProp=Default
   Area=A2   Section=PLACA   MatProp=Default
   Area=A3   Section=PLACA   MatProp=Default
   Area=A4   Section=PLACA   MatProp=Default
   Area=A5   Section=PLACA   MatProp=Default
   Area=A6   Section=PLACA   MatProp=Default
   Area=A7   Section=PLACA   MatProp=Default
   Area=A8   Section=PLACA   MatProp=Default
   Area=A9   Section=PLACA   MatProp=Default
   Area=A10   Section=PLACA   MatProp=Default
   Area=A11   Section=PLACA   MatProp=Default
   Area=A12   Section=PLACA   MatProp=Default
   Area=A13   Section=PLACA   MatProp=Default
   Area=A14   Section=PLACA   MatProp=Default
   Area=A15   Section=PLACA   MatProp=Default
   Area=A16   Section=PLACA   MatProp=Default
   Area=A17   Section=PLACA   MatProp=Default
   Area=A18   Section=PLACA   MatProp=Default
   Area=A19   Section=PLACA   MatProp=Default
   Area=A20   Section=PLACA   MatProp=Default
# ... 4 like lines cut
 
TABLE:  "AREA SECTION PROPERTIES"
   Section=PLACA   Material=CONC   MatAngle=0   AreaType=Shell   Type=Plate-Thin   Thickness=0.1   BendThick=0.1   Color=Yellow   F11Mod=1   F22Mod=1   F12Mod=1   M11Mod=1   M22Mod=1   M12Mod=1   V13Mod=1   V23Mod=1   MMod=1   WMod=1
 
TABLE:  "AREA SECTION PROPERTY DESIGN PARAMETERS"
   Section=PLACA   RebarMat=None   RebarOpt=Default
 
TABLE:  "AREA SECTION PROPERTY - TIME DEPENDENT"
   Section=PLACA   TypeSize=Auto   AutoSFSize=1
 
TABLE:  "AUTO WAVE 3 - WAVE CHARACTERISTICS - GENERAL"
   WaveChar=Default   WaveType="From Theory"   KinFactor=1   SWaterDepth=45   WaveHeight=18   WavePeriod=12   WaveTheory=Linear
 
TABLE:  "CASE - MODAL 1 - GENERAL"
   Case=MODAL   ModeType=Eigen   MaxNumModes=12   MinNumModes=1   EigenShift=0   EigenCutoff=0   EigenTol=1E-09   AutoShift=Yes
 
TABLE:  "CASE - STATIC 1 - LOAD ASSIGNMENTS"
   Case=DEAD   LoadType="Load pattern"   LoadName=DEAD   LoadSF=1
   Case=CARGA   LoadType="Load pattern"   LoadName=CARGA   LoadSF=1
 
TABLE:  "CONNECTIVITY - AREA"
   Area=A1   Joint1=1   Joint2=2   Joint3=9   Joint4=8   GUID=a0100f37-d148-4923-8d94-ed48434b0920
   Area=A2   Joint1=2   Joint2=3   Joint3=10   Joint4=9   GUID=17c928c5-b9c2-43ba-a1fe-a13ee5ba3103
   Area=A3   Joint1=3   Joint2=4   Joint3=11   Joint4=10   GUID=77b363aa-6c71-4a17-b58e-2629ab039f99
   Area=A4   Joint1=4   Joint2=5   Joint3=12   Joint4=11   GUID=a550f372-e79e-47b3-923f-1baa1a8bd659
   Area=A5   Joint1=5   Joint2=6   Joint3=13   Joint4=12   GUID=0841b727-c3c6-4c6d-85ee-637bd8ef2873
   Area=A6   Joint1=6   Joint2=7   Joint3=14   Joint4=13   GUID=170cdeab-6075-42c0-9104-b8f545c75a0e
   Area=A7   Joint1=8   Joint2=9   Joint3=16   Joint4=15   GUID=9326ba58-3400-40c6-9458-0aabd8ddbcfa
   Area=A8   Joint1=9   Joint2=10   Joint3=17   Joint4=16   GUID=44dda51d-1a9f-41a3-a12f-f47d5bbba048
   Area=A9   Joint1=10   Joint2=11   Joint3=18   Joint4=17   GUID=ba667c5e-d8fb-405c-b6f9-2833155fb8d3
   Area=A10   Joint1=11   Joint2=12   Joint3=19   Joint4=18   GUID=187a48c6-ef75-40dd-8555-2679a9f4971e
   Area=A11   Joint1=12   Joint2=13   Joint3=20   Joint4=19   GUID=25f7b36c-b590-46e6-bc0a-5febde6b5301
   Area=A12   Joint1=13   Joint2=14   Joint3=21   Joint4=20   GUID=77030fcb-d469-4c78-8898-4ffe438e9e85
   Area=A13   Joint1=15   Joint2=16   Joint3=23   Joint4=22   GUID=ff155177-b61c-4563-8ff9-99077f192889
   Area=A14   Joint1=16   Joint2=17   Joint3=24   Joint4=23   GUID=1dd41136-da72-4db7-b0d2-9d4bda61c49b
   Area=A15   Joint1=17   Joint2=18   Joint3=25   Joint4=24   GUID=1d1fe27f-d70c-4cf1-ad16-2f34b05cfc6c
   Area=A16   Joint1=18   Joint2=19   Joint3=26   Joint4=25   GUID=f29752a2-dc41-4f94-8159-7b8721b30077
   Area=A17   Joint1=19   Joint2=20   Joint3=27   Joint4=26   GUID=4ccd3332-c581-4eb9-b073-bd5d436975ee
   Area=A18   Joint1=20   Joint2=21   Joint3=28   Joint4=27   GUID=c0b3a3a3-58f7-47fc-931d-3fba3df399ec
   Area=A19   Joint1=22   Joint2=23   Joint3=30   Joint4=29   GUID=399d356a-714f-4c5b-ab3e-2442428e48f3
   Area=A20   Joint1=23   Joint2=24   Joint3=31   Joint4=30   GUID=14432774-f005-47d4-a68b-4d994b4d6f67
   Area=A21   Joint1=24   Joint2=25   Joint3=32   Joint4=31   GUID=503c1587-67be-48d2-9b3b-a9661e79dd73
   Area=A22   Joint1=25   Joint2=26   Joint3=33   Joint4=32   GUID=550e13da-4381-48f0-b988-425933b39864
   Area=A23   Joint1=26   Joint2=27   Joint3=34   Joint4=33   GUID=2a192f8d-d9aa-4983-903b-66e2758be992
   Area=A24   Joint1=27   Joint2=28   Joint3=35   Joint4=34   GUID=18fc6d0c-7288-4b46-af4b-a3cc4a9fe275
 
TABLE:  "COORDINATE SYSTEMS"
   Name=GLOBAL   Type=Cartesian   X=0   Y=0   Z=0   AboutZ=0   AboutY=0   AboutX=0
 
TABLE:  "DATABASE DOCUMENTATION"
 
TABLE:  "DATABASE FORMAT TYPES"
   UnitsCurr=Yes   OverrideE=No
 
TABLE:  "FUNCTION - PLOT FUNCTIONS"
   PlotFunc="Input Energy"   Type=Energy   Component=Input   Mode=All
 
TABLE:  "FUNCTION - POWER SPECTRAL DENSITY - USER"
   Name=UNIFPSD   Frequency=0   Value=1
   Name=UNIFPSD   Frequency=1   Value=1
 
TABLE:  "FUNCTION - RESPONSE SPECTRUM - USER"
   Name=UNIFRS   Period=0   Accel=1   FuncDamp=0.05
   Name=UNIFRS   Period=1   Accel=1
 
TABLE:  "FUNCTION - STEADY STATE - USER"
   Name=UNIFSS   Frequency=0   Value=1
   Name=UNIFSS   Frequency=1   Value=1
 
TABLE:  "FUNCTION - TIME HISTORY - USER"
   Name=RAMPTH   Time=0   Value=0
   Name=RAMPTH   Time=1   Value=1
   Name=RAMPTH   Time=4   Value=1
   Name=UNIFTH   Time=0   Value=1
   Name=UNIFTH   Time=1   Value=1
 
TABLE:  "GROUPS 1 - DEFINITIONS"
   GroupName=ALL   Selection=Yes   SectionCut=Yes   Steel=Yes   Concrete=Yes   Aluminum=Yes   ColdFormed=Yes   Stage=Yes   Bridge=Yes   AutoSeismic=No   AutoWind=No   SelDesSteel=No   SelDesAlum=No   SelDesCold=No   MassWeight=Yes   Color=Red
 
TABLE:  "JOINT COORDINATES"
   Joint=1   CoordSys=GLOBAL   CoordType=Cartesian   XorR=0   Y=0   Z=0   SpecialJt=Yes   GUID=da8c289f-0fc0-418d-af45-260a2723b75f
   Joint=2   CoordSys=GLOBAL   CoordType=Cartesian   XorR=1   Y=0   Z=0   SpecialJt=Yes   GUID=a31df720-a07f-4bf5-91a6-ea1d6c3b6615
   Joint=3   CoordSys=GLOBAL   CoordType=Cartesian   XorR=2   Y=0   Z=0   SpecialJt=Yes   GUID=54b2878f-7805-476d-9a11-ddc7b1d290b7
   Joint=4   CoordSys=GLOBAL   CoordType=Cartesian   XorR=3   Y=0   Z=0   SpecialJt=Yes   GUID=b99bbe80-e84f-4ea0-9e23-e5ac959308d3
   Joint=5   CoordSys=GLOBAL   CoordType=Cartesian   XorR=4   Y=0   Z=0   SpecialJt=Yes   GUID=ce629949-435a-4bba-8b8a-64c98514d0f0
   Joint=6   CoordSys=GLOBAL   CoordType=Cartesian   XorR=5   Y=0   Z=0   SpecialJt=Yes   GUID=44025e46-6b13-4c6a-86f8-85c0f0d8550b
   Joint=7   CoordSys=GLOBAL   CoordType=Cartesian   XorR=6   Y=0   Z=0   SpecialJt=Yes   GUID=2f819b64-a495-4d2b-a64e-3304a28f2082
   Joint=8   CoordSys=GLOBAL   CoordType=Cartesian   XorR=0   Y=1   Z=0   SpecialJt=Yes   GUID=c825039a-dccf-4feb-a340-9453843586a6
   Joint=9   CoordSys=GLOBAL   CoordType=Cartesian   XorR=1   Y=1   Z=0   SpecialJt=Yes   GUID=de9f9a17-485a-48e6-97a7-86aa9a032fdf
   Joint=10   CoordSys=GLOBAL   CoordType=Cartesian   XorR=2   Y=1   Z=0   SpecialJt=Yes   GUID=7bcdce00-237e-4b31-9ec5-91eed2fc4808
   Joint=11   CoordSys=GLOBAL   CoordType=Cartesian   XorR=3   Y=1   Z=0   SpecialJt=Yes   GUID=5461355e-7e02-4138-98e9-c0240bf13b66
   Joint=12   CoordSys=GLOBAL   CoordType=Cartesian   XorR=4   Y=1   Z=0   SpecialJt=Yes   GUID=a657f3f7-6ece-4531-bc2d-e6dfba00823e
   Joint=13   CoordSys=GLOBAL   CoordType=Cartesian   XorR=5   Y=1   Z=0   SpecialJt=Yes   GUID=8348b6fb-20c1-48a4-b511-717b2ca39353
   Joint=14   CoordSys=GLOBAL   CoordType=Cartesian   XorR=6   Y=1   Z=0   SpecialJt=Yes   GUID=0abc0464-d0a2-484a-af3e-eb5e316ea46e
   Joint=15   CoordSys=GLOBAL   CoordType=Cartesian   XorR=0   Y=2   Z=0   SpecialJt=Yes   GUID=ca92f18e-aef2-424a-8024-870c3153eb8c
   Joint=16   CoordSys=GLOBAL   CoordType=Cartesian   XorR=1   Y=2   Z=0   SpecialJt=Yes   GUID=7084f295-e627-4c9a-8231-739e404f7c29
   Joint=17   CoordSys=GLOBAL   CoordType=Cartesian   XorR=2   Y=2   Z=0   SpecialJt=Yes   GUID=5fdedb18-acae-40f4-8696-3a66f7cdadcf
   Joint=18   CoordSys=GLOBAL   CoordType=Cartesian   XorR=3   Y=2   Z=0   SpecialJt=Yes   GUID=d58fd69b-38e7-4408-afd8-41c047fef6de
   Joint=19   CoordSys=GLOBAL   CoordType=Cartesian   XorR=4   Y=2   Z=0   SpecialJt=Yes   GUID=b9a78276-24ba-4c0a-94bd-b6462215b6f1
   Joint=20   CoordSys=GLOBAL   CoordType=Cartesian   XorR=5   Y=2   Z=0   SpecialJt=Yes   GUID=2c4289f7-f4d1-4433-8bb9-f8bb168884b7
   Joint=21   CoordSys=GLOBAL   CoordType=Cartesian   XorR=6   Y=2   Z=0   SpecialJt=Yes   GUID=6aa52977-b96e-4d5d-946c-74374729e5f0
   Joint=22   CoordSys=GLOBAL   CoordType=Cartesian   XorR=0   Y=3   Z=0   SpecialJt=Yes   GUID=1ec36e36-554d-4532-a631-019f14b4ed48
   Joint=23   CoordSys=GLOBAL   CoordType=Cartesian   XorR=1   Y=3   Z=0   SpecialJt=Yes   GUID=8dd2af00-1a62-4b83-bc01-f5b5d5050e89
   Joint=24   CoordSys=GLOBAL   CoordType=Cartesian   XorR=2   Y=3   Z=0   SpecialJt=Yes   GUID=f31a2f88-f432-45f9-ba01-4befc219ac13
   Joint=25   CoordSys=GLOBAL   CoordType=Cartesian   XorR=3   Y=3   Z=0   SpecialJt=Yes   GUID=3f1859c9-8e3b-4508-b3a1-ab2d2a60f728
   Joint=26   CoordSys=GLOBAL   CoordType=Cartesian   XorR=4   Y=3   Z=0   SpecialJt=Yes   GUID=0df4386e-44f1-439d-a999-6a130d859c49
   Joint=27   CoordSys=GLOBAL   CoordType=Cartesian   XorR=5   Y=3   Z=0   SpecialJt=Yes   GUID=4b6681ee-da7d-424d-9382-26a804f35f1a
   Joint=28   CoordSys=GLOBAL   CoordType=Cartesian   XorR=6   Y=3   Z=0   SpecialJt=Yes   GUID=7611620c-6ec5-4473-bb07-099e16ca7cd6
   Joint=29   CoordSys=GLOBAL   CoordType=Cartesian   XorR=0   Y=4   Z=0   SpecialJt=Yes   GUID=00cbe2d1-12f0-46e4-a784-15dbb6bcfd09
   Joint=30   CoordSys=GLOBAL   CoordType=Cartesian   XorR=1   Y=4   Z=0   SpecialJt=Yes   GUID=d1e14a33-bea6-46cd-98d3-8ae6e75d309c
   Joint=31   CoordSys=GLOBAL   CoordType=Cartesian   XorR=2   Y=4   Z=0   SpecialJt=Yes   GUID=74193f7d-2d05-4de0-beec-fd93d155a214
   Joint=32   CoordSys=GLOBAL   CoordType=Cartesian   XorR=3   Y=4   Z=0   SpecialJt=Yes   GUID=2f3ad03d-ef4c-4906-8546-7ef9e21f1f9a
   Joint=33   CoordSys=GLOBAL   CoordType=Cartesian   XorR=4   Y=4   Z=0   SpecialJt=Yes   GUID=82e7faf1-bb6a-433d-bb86-eec5058492d8
   Joint=34   CoordSys=GLOBAL   CoordType=Cartesian   XorR=5   Y=4   Z=0   SpecialJt=Yes   GUID=667601a6-25f9-4e19-aede-37b05ad9005f
   Joint=35   CoordSys=GLOBAL   CoordType=Cartesian   XorR=6   Y=4   Z=0   SpecialJt=Yes   GUID=6fb4d975-2a97-4c72-835d-e605ad950e01
 
TABLE:  "JOINT PATTERN DEFINITIONS"
   Pattern=Default
 
TABLE:  "JOINT RESTRAINT ASSIGNMENTS"
   Joint=1   U1=No   U2=No   U3=Yes   R1=No   R2=No   R3=No
   Joint=2   U1=No   U2=No   U3=Yes   R1=No   R2=No   R3=No
   Joint=3   U1=No   U2=No   U3=Yes   R1=No   R2=No   R3=No
   Joint=4   U1=No   U2=No   U3=Yes   R1=No   R2=No   R3=No
   Joint=5   U1=No   U2=No   U3=Yes   R1=No   R2=No   R3=No
   Joint=6   U1=No   U2=No   U3=Yes   R1=No   R2=No   R3=No
   Joint=7   U1=No   U2=No   U3=Yes   R1=No   R2=No   R3=No
   Joint=8   U1=No   U2=No   U3=Yes   R1=No   R2=No   R3=No
   Joint=14   U1=No   U2=No   U3=Yes   R1=No   R2=No   R3=No
   Joint=15   U1=No   U2=No   U3=Yes   R1=No   R2=No   R3=No
   Joint=21   U1=No   U2=No   U3=Yes   R1=No   R2=No   R3=No
   Joint=22   U1=No   U2=No   U3=Yes   R1=No   R2=No   R3=No
   Joint=28   U1=No   U2=No   U3=Yes   R1=No   R2=No   R3=No
   Joint=29   U1=No   U2=No   U3=Yes   R1=No   R2=No   R3=No
   Joint=30   U1=No   U2=No   U3=Yes   R1=No   R2=No   R3=No
   Joint=31   U1=No   U2=No   U3=Yes   R1=No   R2=No   R3=No
   Joint=32   U1=No   U2=No   U3=Yes   R1=No   R2=No   R3=No
   Joint=33   U1=No   U2=No   U3=Yes   R1=No   R2=No   R3=No
   Joint=34   U1=No   U2=No   U3=Yes   R1=No   R2=No   R3=No
   Joint=35   U1=No   U2=No   U3=Yes   R1=No   R2=No   R3=No
 
TABLE:  "LOAD CASE DEFINITIONS"
   Case=DEAD   Type=LinStatic   InitialCond=Zero   DesTypeOpt="Prog Det"   DesignType=Dead   DesActOpt="Prog Det"   DesignAct=Non-Composite   AutoType=None   RunCase=Yes   GUID=39f5b78b-533a-46e7-bb34-d37b91c6a335
   Case=MODAL   Type=LinModal   InitialCond=Zero   DesTypeOpt="Prog Det"   DesignType=Other   DesActOpt="Prog Det"   DesignAct=Other   AutoType=None   RunCase=Yes   GUID=925af7b2-dd3f-4233-b054-6fa157df8bf9
   Case=CARGA   Type=LinStatic   InitialCond=Zero   DesTypeOpt="Prog Det"   DesignType=Other   DesActOpt="Prog Det"   DesignAct=Other   AutoType=None   RunCase=Yes   GUID=735e41d1-6fb4-4a16-830e-9fe72b90cbd6
 
TABLE:  "LOAD PATTERN DEFINITIONS"
   LoadPat=DEAD   DesignType=Dead   SelfWtMult=1   GUID=1cd34478-5f0b-422b-999c-239a272c61e4
   LoadPat=CARGA   DesignType=Other   SelfWtMult=0   GUID=5ddb64bc-323c-4ae3-ac22-5d19c73fc463
 
TABLE:  "MASS SOURCE"
   MassSource=MSSSRC1   Elements=Yes   Masses=Yes   Loads=No   IsDefault=Yes
 
TABLE:  "MATERIAL PROPERTIES 01 - GENERAL"
   Material=4000Psi   Type=Concrete   Grade="f'c 4000 psi"   SymType=Isotropic   TempDepend=No   Color=Red   GUID=0193cb42-5287-4a63-ba1d-a1a2a8ee3781   Notes="Customary f'c 4000 psi 2/4/2026 7:03:29 AM"
   Material=A992Fy50   Type=Steel   Grade="Grade 50"   SymType=Isotropic   TempDepend=No   Color=Cyan   Notes="ASTM A992 Grade 50 2/4/2026 7:03:29 AM"
   Material=CONC   Type=Concrete   SymType=Isotropic   TempDepend=No   Color=Magenta
 
TABLE:  "MATERIAL PROPERTIES 02 - BASIC MECHANICAL PROPERTIES"
   Material=4000Psi   UnitWeight=23.5631216161854   UnitMass=2.40276960558926   E1=24855578.0600518   G12=10356490.8583549   U12=0.2   A1=9.89999952793124E-06
   Material=A992Fy50   UnitWeight=76.9728639422648   UnitMass=7.84904737995992   E1=199947978.795958   G12=76903068.767676   U12=0.3   A1=1.16999994421006E-05
   Material=CONC   UnitWeight=23.563121614979   UnitMass=2.40276960611018   E1=35000000   G12=15217391.3043478   U12=0.15   A1=1E-05
 
TABLE:  "MATERIAL PROPERTIES 03A - STEEL DATA"
   Material=A992Fy50   Fy=344737.894475789   Fu=448159.262818526   EffFy=379211.683923368   EffFu=492975.189100378   SSCurveOpt=Simple   SSHysType=Kinematic   SHard=0.015   SMax=0.11   SRup=0.17   FinalSlope=-0.1   CoupModType="Von Mises"
 
TABLE:  "MATERIAL PROPERTIES 03B - CONCRETE DATA"
   Material=4000Psi   Fc=27579.0315580631   eFc=27579.0315580631   LtWtConc=No   SSCurveOpt=Mander   SSHysType=Takeda   SFc=0.00221914   SCap=0.005   FinalSlope=-0.1   FAngle=0   DAngle=0   CoupModType="Modified Darwin-Pecknold"
   Material=CONC   Fc=27579.0315580631   eFc=27579.0315580631   LtWtConc=No   SSCurveOpt=Mander   SSHysType=Takeda   SFc=0.00221914221766202   SCap=0.005   FinalSlope=-0.1   FAngle=0   DAngle=0   CoupModType="Modified Darwin-Pecknold"
 
TABLE:  "MATERIAL PROPERTIES 03J - COUPLED NONLINEAR VON MISES DATA"
   Material=A992Fy50   YieldStress=379211.683923368   LinIsoHard=No   LinKinHard=No   NLIsoSaHard=No
 
TABLE:  "MATERIAL PROPERTIES 06 - DAMPING PARAMETERS"
   Material=4000Psi   ModalRatio=0   VisMass=0   VisStiff=0   HysMass=0   HysStiff=0
   Material=A992Fy50   ModalRatio=0   VisMass=0   VisStiff=0   HysMass=0   HysStiff=0
   Material=CONC   ModalRatio=0   VisMass=0   VisStiff=0   HysMass=0   HysStiff=0
 
TABLE:  "MATERIAL PROPERTIES 09 - ACCEPTANCE CRITERIA"
   Material=4000Psi   IOTens=0.01   LSTens=0.02   CPTens=0.05   IOComp=-0.003   LSComp=-0.006   CPComp=-0.015   IgnoreTens=Yes
   Material=A992Fy50   IOTens=0.01   LSTens=0.02   CPTens=0.05   IOComp=-0.005   LSComp=-0.01   CPComp=-0.02
   Material=CONC   IOTens=0.01   LSTens=0.02   CPTens=0.05   IOComp=-0.003   LSComp=-0.006   CPComp=-0.015   IgnoreTens=Yes
 
TABLE:  "OPTIONS - COLORS - DISPLAY"
   DeviceType=Screen   Points=Blue   LinesFrame=Blue   LinesFrmDL=Blue   LinesCable=Green   LinesTendon=Green   SpringLinks=Green   Restraints=Green   Releases=Green   Axes=Cyan   Text=Black   ShadowLines=Gray8Dark   GuideLines=Gray8Dark _
        Highlight=Red   Selection=10504778   AreaFillBot=Red   AreaFillTop=16744703   AreaFillSd=Red   AreaEdge=DarkRed   SolidF1=Red   SolidF2=Blue   SolidF3=Green   SolidF4=Yellow   SolidF5=White   SolidF6=Cyan   SolidEdge=DarkRed _
        Floor=Gray4   Background=White   BGLowLeft=White   BGLowRight=White   BGUpRight=White   Darkness=0.5
   DeviceType=Printer   Points=Gray8Dark   LinesFrame=Black   LinesFrmDL=Gray4   LinesCable=Black   LinesTendon=Black   SpringLinks=Gray8Dark   Restraints=Gray8Dark   Releases=Gray4   Axes=Black   Text=Black   ShadowLines=Gray4 _
        GuideLines=Gray4   Highlight=Black   Selection=Black   AreaFillBot=Gray4   AreaFillTop=Gray8Dark   AreaFillSd=Gray4   AreaEdge=Black   SolidF1=Gray1Light   SolidF2=Gray2   SolidF3=Gray3   SolidF4=Gray4   SolidF5=Gray5 _
        SolidF6=Gray6   SolidEdge=Black   Floor=Gray4   Background=White   BGLowLeft=White   BGLowRight=White   BGUpRight=White   Darkness=0.5
   DeviceType="Color Printer"   Points=Blue   LinesFrame=Blue   LinesFrmDL=Blue   LinesCable=Green   LinesTendon=Green   SpringLinks=Green   Restraints=Green   Releases=Green   Axes=Cyan   Text=Black   ShadowLines=Gray8Dark _
        GuideLines=Gray8Dark   Highlight=Red   Selection=10504778   AreaFillBot=Red   AreaFillTop=16744703   AreaFillSd=Red   AreaEdge=DarkRed   SolidF1=Red   SolidF2=Blue   SolidF3=Green   SolidF4=Yellow   SolidF5=White   SolidF6=Cyan _
        SolidEdge=DarkRed   Floor=Gray4   Background=White   BGLowLeft=White   BGLowRight=White   BGUpRight=White   Darkness=0.5
 
TABLE:  "OPTIONS - COLORS - OUTPUT"
   DeviceType=Screen   Contour1=13107400   Contour2=6553828   Contour3=Red   Contour4=16639   Contour5=Orange   Contour6=43775   Contour7=54527   Contour8=Yellow   Contour9=65408   Contour10=Green   Contour11=8453888   Contour12=Cyan _
        Contour13=16755200   Contour14=16733440   Contour15=Blue   Transpare=0   Ratio1=Cyan   Ratio2=Green   Ratio3=Yellow   Ratio4=Orange   Ratio5=Red   RatioNotD=Gray4   RatioNotC=Red   RatioVal1=0.5   RatioVal2=0.7   RatioVal3=0.9 _
        RatioVal4=1   DFillPos=Blue   DFillNeg=Red   DFillRPos=Green   DFillRNeg=Green
   DeviceType=Printer   Contour1=Black   Contour2=3158064   Contour3=4210752   Contour4=5263440   Contour5=6316128   Contour6=7368816   Contour7=Gray8Dark   Contour8=Gray7   Contour9=Gray6   Contour10=Gray5   Contour11=Gray4 _
        Contour12=Gray3   Contour13=Gray2   Contour14=Gray1Light   Contour15=White   Transpare=0   Ratio1=Gray2   Ratio2=Gray4   Ratio3=Gray8Dark   Ratio4=4210752   Ratio5=Black   RatioNotD=Gray4   RatioNotC=Black   RatioVal1=0.5 _
        RatioVal2=0.7   RatioVal3=0.9   RatioVal4=1   DFillPos=Gray8Dark   DFillNeg=Gray8Dark   DFillRPos=4210752   DFillRNeg=4210752
   DeviceType="Color Printer"   Contour1=13107400   Contour2=6553828   Contour3=Red   Contour4=16639   Contour5=Orange   Contour6=43775   Contour7=54527   Contour8=Yellow   Contour9=65408   Contour10=Green   Contour11=8453888 _
        Contour12=Cyan   Contour13=16755200   Contour14=16733440   Contour15=Blue   Transpare=0   Ratio1=Cyan   Ratio2=Green   Ratio3=Yellow   Ratio4=Orange   Ratio5=Red   RatioNotD=Gray4   RatioNotC=Red   RatioVal1=0.5   RatioVal2=0.7 _
        RatioVal3=0.9   RatioVal4=1   DFillPos=Blue   DFillNeg=Red   DFillRPos=Green   DFillRNeg=Green
 
TABLE:  "PREFERENCES - ALUMINUM DESIGN - AA 2015"
   THDesign=Envelopes   SRatioLimit=1   Provision=LRFD   LatFact=1.33333333333333   UseLatFact=No   Bridge=No   PhiTy=0.9   PhiTr=0.75   PhiC=0.9   PhiBo=0.9   PhiBr=0.75   PhiVo=0.9   PhiVr=0.75
 
TABLE:  "PREFERENCES - COLD FORMED DESIGN - AISI-16"
   THDesign=Envelopes   FrameType="Braced Frame"   SRatioLimit=1   SOMethod="General 2nd Order"   Provision=LRFD   LatFact=1.33333333333333   UseLatFact=No   PhiTy=0.9   PhiTr=0.75   PhiC=0.85   PhiB=0.9   PhiBPipe=0.95   PhiV=0.95
 
TABLE:  "PREFERENCES - CONCRETE DESIGN - ACI 318-19"
   THDesign=Envelopes   NumCurves=24   NumPoints=11   MinEccen=Yes   BCCDesign=Yes   IgnoreBPu=Yes   CTorsion=Yes   PatLLF=0.75   UFLimit=0.95   SeisCat=D   Rho=1   Sds=0.5   PhiT=0.9   PhiCTied=0.65   PhiCSpiral=0.75   PhiV=0.75 _
        PhiVSeismic=0.6   PhiVJoint=0.85   TanTheta=1
 
TABLE:  "PREFERENCES - CONCRETE SHELL DESIGN - EUROCODE 2-2004"
   Country="CEN Default"   GammaS=1.15   GammaC=1.5   AlphaCC=1   AlphaCT=1   CrackCond="Program Determined"   ShrDesMet="Method 1"   CotTheta=1
 
TABLE:  "PREFERENCES - DIMENSIONAL"
   MergeTol=0.001   FineGrid=0.25   Nudge=0.25   SelectTol=3   SnapTol=12   SLineThick=1   PLineThick=4   MaxFont=8   MinFont=3   AutoZoom=10   ShrinkFact=70   TextFileLen=240
 
TABLE:  "PREFERENCES - STEEL DESIGN - AISC 360-16"
   THDesign=Envelopes   FrameType=SMF   PatLLF=0.75   SRatioLimit=0.95   MaxIter=1   SDC=D   SeisCode=No   SeisLoad=No   ImpFactor=1   SystemRho=1   SystemSds=0.5   SystemR=8   SystemCd=5.5   Omega0=3   Provision=LRFD _
        AMethod="Direct Analysis"   SOMethod="General 2nd Order"   SRMethod="Tau-b Fixed"   NLCoeff=0.002   PhiB=0.9   PhiC=0.9   PhiTY=0.9   PhiTF=0.75   PhiV=0.9   PhiVRolledI=1   PhiVT=0.9   PlugWeld=Yes   HSSWelding=ERW   HSSReduceT=No _
        CheckDefl=No   DLRat=120   SDLAndLLRat=120   LLRat=360   TotalRat=240   NetRat=240
 
TABLE:  "PROGRAM CONTROL"
   ProgramName=SAP2000   Version=24.1.0   CurrUnits="KN, m, C"   SteelCode="AISC 360-16"   ConcCode="ACI 318-19"   AlumCode="AA 2015"   ColdCode=AISI-16   RegenHinge=Yes
 
TABLE:  "PROJECT INFORMATION"
   Item="Company Name"
   Item="Client Name"
   Item="Project Name"
   Item="Project Number"
   Item="Model Name"
   Item="Model Description"
   Item="Revision Number"
   Item="Frame Type"
   Item=Engineer
   Item=Checker
   Item=Supervisor
   Item="Issue Code"
   Item="Design Code"
 
TABLE:  "REBAR SIZES"
   RebarID=#2   Area=3.2258E-05   Diameter=0.00635
   RebarID=#3   Area=7.09675996154547E-05   Diameter=0.009525
   RebarID=#4   Area=0.000129032001922727   Diameter=0.0127
   RebarID=#5   Area=0.000199999601538181   Diameter=0.015875
   RebarID=#6   Area=0.000283870398461819   Diameter=0.01905
   RebarID=#7   Area=0.000387096015381813   Diameter=0.022225
   RebarID=#8   Area=0.000509676413843632   Diameter=0.0254
   RebarID=#9   Area=0.00064516   Diameter=0.0286512005329132
   RebarID=#10   Area=0.00081935318769455   Diameter=0.0322579995155334
   RebarID=#11   Area=0.00100644956308365   Diameter=0.0358139991521835
   RebarID=#14   Area=0.00145161   Diameter=0.0430021989583969
   RebarID=#18   Area=0.00258064   Diameter=0.0573277992248535
   RebarID=10M   Area=0.000100000002655387   Diameter=0.011300000667572
   RebarID=15M   Area=0.000200000005310774   Diameter=0.0159999999403954
   RebarID=20M   Area=0.000300000017579794   Diameter=0.0194999997854233
   RebarID=25M   Area=0.000500000022890568   Diameter=0.0252000016093254
   RebarID=30M   Area=0.000700000008974075   Diameter=0.0299000008821487
   RebarID=35M   Area=0.00100000004578114   Diameter=0.0357000011444092
   RebarID=45M   Area=0.00150000010712624   Diameter=0.0437000003576279
   RebarID=55M   Area=0.00250000007599831   Diameter=0.0564000033855438
   RebarID=6d   Area=2.83000004149973E-05   Diameter=0.006000000166893
   RebarID=8d   Area=5.02999995571375E-05   Diameter=0.00799999997019768
   RebarID=10d   Area=7.85000013634562E-05   Diameter=0.00999999977350235
   RebarID=12d   Area=0.000113000009249449   Diameter=0.012000000333786
   RebarID=14d   Area=0.000154000010818839   Diameter=0.0140000008940697
   RebarID=16d   Area=0.000201000015431643   Diameter=0.0159999999403954
   RebarID=20d   Area=0.000314000005453825   Diameter=0.0199999995470047
   RebarID=25d   Area=0.000491000008711815   Diameter=0.0250000001907349
   RebarID=26d   Area=0.000531000029001236   Diameter=0.0259999997138977
   RebarID=28d   Area=0.000616000043275356   Diameter=0.0280000017881393
   RebarID=N12   Area=0.000113000009249449   Diameter=0.012000000333786
   RebarID=N16   Area=0.000201000015431643   Diameter=0.0159999999403954
   RebarID=N20   Area=0.000314000005453825   Diameter=0.0199999995470047
   RebarID=N24   Area=0.000452000036997795   Diameter=0.024000000667572
   RebarID=N28   Area=0.000616000043275356   Diameter=0.0280000017881393
   RebarID=N32   Area=0.00080400006172657   Diameter=0.0319999998807907
   RebarID=N36   Area=0.00102000001747131   Diameter=0.036000001001358
 
END TABLE DATA
