File C:\Users\j-b-j\Documents\Calcpad-7.5.7\awatif-2.0.0\tests\results\placa_solocarga.$2k was saved on m/d/yy at h:mm:ss
 
TABLE:  "ACTIVE DEGREES OF FREEDOM"
   UX=Yes   UY=Yes   UZ=Yes   RX=Yes   RY=Yes   RZ=Yes
 
TABLE:  "ANALYSIS OPTIONS"
   Solver=Advanced   SolverProc=Auto   Force32Bit=No   StiffCase=None   GeomMod=None   HingeOpt="In Elements"   NumAThreads=0   MaxFileSize=0   NumDThreads=0   NumRThreads=0   UseMMFiles="Program Determined"   AllowDiff=No
 
TABLE:  "AREA LOADS - UNIFORM"
   Area=E1   LoadPat=CARGA   CoordSys=GLOBAL   Dir=Z   UnifLoad=10
   Area=E2   LoadPat=CARGA   CoordSys=GLOBAL   Dir=Z   UnifLoad=10
   Area=E3   LoadPat=CARGA   CoordSys=GLOBAL   Dir=Z   UnifLoad=10
   Area=E4   LoadPat=CARGA   CoordSys=GLOBAL   Dir=Z   UnifLoad=10
   Area=E5   LoadPat=CARGA   CoordSys=GLOBAL   Dir=Z   UnifLoad=10
   Area=E6   LoadPat=CARGA   CoordSys=GLOBAL   Dir=Z   UnifLoad=10
   Area=E7   LoadPat=CARGA   CoordSys=GLOBAL   Dir=Z   UnifLoad=10
   Area=E8   LoadPat=CARGA   CoordSys=GLOBAL   Dir=Z   UnifLoad=10
   Area=E9   LoadPat=CARGA   CoordSys=GLOBAL   Dir=Z   UnifLoad=10
   Area=E10   LoadPat=CARGA   CoordSys=GLOBAL   Dir=Z   UnifLoad=10
   Area=E11   LoadPat=CARGA   CoordSys=GLOBAL   Dir=Z   UnifLoad=10
   Area=E12   LoadPat=CARGA   CoordSys=GLOBAL   Dir=Z   UnifLoad=10
   Area=E13   LoadPat=CARGA   CoordSys=GLOBAL   Dir=Z   UnifLoad=10
   Area=E14   LoadPat=CARGA   CoordSys=GLOBAL   Dir=Z   UnifLoad=10
   Area=E15   LoadPat=CARGA   CoordSys=GLOBAL   Dir=Z   UnifLoad=10
   Area=E16   LoadPat=CARGA   CoordSys=GLOBAL   Dir=Z   UnifLoad=10
 
TABLE:  "AREA SECTION ASSIGNMENTS"
   Area=E1   Section=PLACA   MatProp=Default
   Area=E2   Section=PLACA   MatProp=Default
   Area=E3   Section=PLACA   MatProp=Default
   Area=E4   Section=PLACA   MatProp=Default
   Area=E5   Section=PLACA   MatProp=Default
   Area=E6   Section=PLACA   MatProp=Default
   Area=E7   Section=PLACA   MatProp=Default
   Area=E8   Section=PLACA   MatProp=Default
   Area=E9   Section=PLACA   MatProp=Default
   Area=E10   Section=PLACA   MatProp=Default
   Area=E11   Section=PLACA   MatProp=Default
   Area=E12   Section=PLACA   MatProp=Default
   Area=E13   Section=PLACA   MatProp=Default
   Area=E14   Section=PLACA   MatProp=Default
   Area=E15   Section=PLACA   MatProp=Default
   Area=E16   Section=PLACA   MatProp=Default
 
TABLE:  "AREA SECTION PROPERTIES"
   Section=PLACA   Material=CONC   MatAngle=0   AreaType=Shell   Type=Shell-Thick   DrillDOF=Yes   Thickness=0.2   BendThick=0.2   Color=Yellow   F11Mod=1   F22Mod=1   F12Mod=1   M11Mod=1   M22Mod=1   M12Mod=1   V13Mod=1   V23Mod=1   MMod=1   WMod=1
 
TABLE:  "AREA SECTION PROPERTY DESIGN PARAMETERS"
   Section=PLACA   RebarMat=None   RebarOpt=Default
 
TABLE:  "AREA SECTION PROPERTY - TIME DEPENDENT"
   Section=PLACA   TypeSize=Auto   AutoSFSize=1
 
TABLE:  "AUTO WAVE 3 - WAVE CHARACTERISTICS - GENERAL"
   WaveChar=Default   WaveType="From Theory"   KinFactor=1   SWaterDepth=45   WaveHeight=18   WavePeriod=12   WaveTheory=Linear
 
TABLE:  "CASE - STATIC 1 - LOAD ASSIGNMENTS"
   Case=CARGA   LoadType="Load pattern"   LoadName=CARGA   LoadSF=1
 
TABLE:  "CONNECTIVITY - AREA"
   Area=E1   Joint1=1   Joint2=2   Joint3=3   Joint4=4   GUID=7391db0f-000c-4441-a54e-8bcec575d006
   Area=E2   Joint1=2   Joint2=5   Joint3=6   Joint4=3   GUID=7c11378d-0a35-493b-9e1b-0813338af4d6
   Area=E3   Joint1=5   Joint2=7   Joint3=8   Joint4=6   GUID=d9e8a3bd-609a-417d-aa2a-182a14cb8d97
   Area=E4   Joint1=7   Joint2=9   Joint3=10   Joint4=8   GUID=c1d09bbb-1ed8-4119-961d-c1d066945e75
   Area=E5   Joint1=4   Joint2=3   Joint3=11   Joint4=12   GUID=962c560f-b727-410b-a2c4-046e6dbc0d14
   Area=E6   Joint1=3   Joint2=6   Joint3=13   Joint4=11   GUID=76b4037a-353a-4dfe-85b2-6c2c36ee2ecb
   Area=E7   Joint1=6   Joint2=8   Joint3=14   Joint4=13   GUID=01b36038-4e83-417e-8f2f-05d5fa8b45ae
   Area=E8   Joint1=8   Joint2=10   Joint3=15   Joint4=14   GUID=1d9ce5a3-7003-49cd-9044-9298bf7314a9
   Area=E9   Joint1=12   Joint2=11   Joint3=16   Joint4=17   GUID=8eadfa40-35c9-4c14-9ef8-7a4430d7e20a
   Area=E10   Joint1=11   Joint2=13   Joint3=18   Joint4=16   GUID=1fdd3551-2ac9-40ba-b33d-6852453d8c2b
   Area=E11   Joint1=13   Joint2=14   Joint3=19   Joint4=18   GUID=ee3d71bc-21f8-4421-af3c-e2bc7deb4d51
   Area=E12   Joint1=14   Joint2=15   Joint3=20   Joint4=19   GUID=f4760a67-c0cd-48a1-95fd-5d794e9e9773
   Area=E13   Joint1=17   Joint2=16   Joint3=21   Joint4=22   GUID=627f17bb-2ff5-465d-90af-746aa2c7fc5c
   Area=E14   Joint1=16   Joint2=18   Joint3=23   Joint4=21   GUID=91cbb5fb-29fd-4931-a753-90a48c194e2a
   Area=E15   Joint1=18   Joint2=19   Joint3=24   Joint4=23   GUID=38efaa8f-23d7-4df1-9055-1cea40acef7c
   Area=E16   Joint1=19   Joint2=20   Joint3=25   Joint4=24   GUID=d1d73809-45fd-4c6f-a78e-281d3c101750
 
TABLE:  "COORDINATE SYSTEMS"
   Name=GLOBAL   Type=Cartesian   X=0   Y=0   Z=0   AboutZ=0   AboutY=0   AboutX=0
 
TABLE:  "DATABASE DOCUMENTATION"
 
TABLE:  "DATABASE FORMAT TYPES"
   UnitsCurr=Yes   OverrideE=No
 
TABLE:  "FUNCTION - PLOT FUNCTIONS"
   PlotFunc="Input Energy"   Type=Energy   Component=Input   Mode=All
 
TABLE:  "FUNCTION - POWER SPECTRAL DENSITY - USER"
   Name=UNIFPSD   Frequency=0   Value=1
   Name=UNIFPSD   Frequency=1   Value=1
 
TABLE:  "FUNCTION - RESPONSE SPECTRUM - USER"
   Name=UNIFRS   Period=0   Accel=1   FuncDamp=0.05
   Name=UNIFRS   Period=1   Accel=1
 
TABLE:  "FUNCTION - STEADY STATE - USER"
   Name=UNIFSS   Frequency=0   Value=1
   Name=UNIFSS   Frequency=1   Value=1
 
TABLE:  "FUNCTION - TIME HISTORY - USER"
   Name=RAMPTH   Time=0   Value=0
   Name=RAMPTH   Time=1   Value=1
   Name=RAMPTH   Time=4   Value=1
   Name=UNIFTH   Time=0   Value=1
   Name=UNIFTH   Time=1   Value=1
 
TABLE:  "GROUPS 1 - DEFINITIONS"
   GroupName=ALL   Selection=Yes   SectionCut=Yes   Steel=Yes   Concrete=Yes   Aluminum=Yes   ColdFormed=Yes   Stage=Yes   Bridge=Yes   AutoSeismic=No   AutoWind=No   SelDesSteel=No   SelDesAlum=No   SelDesCold=No   MassWeight=Yes   Color=Red
 
TABLE:  "JOINT COORDINATES"
   Joint=1   CoordSys=GLOBAL   CoordType=Cartesian   XorR=0   Y=0   Z=0   SpecialJt=No   GUID=8b085e16-cac9-48e9-827d-c98514eb4bf8
   Joint=2   CoordSys=GLOBAL   CoordType=Cartesian   XorR=0.5   Y=0   Z=0   SpecialJt=No   GUID=f964ff19-1e70-477a-bca4-487812020816
   Joint=3   CoordSys=GLOBAL   CoordType=Cartesian   XorR=0.5   Y=0.5   Z=0   SpecialJt=No   GUID=ef8d7f4c-e670-4700-862c-411e2751835d
   Joint=4   CoordSys=GLOBAL   CoordType=Cartesian   XorR=0   Y=0.5   Z=0   SpecialJt=No   GUID=86bc12eb-8be9-443d-a088-f454ad152a98
   Joint=5   CoordSys=GLOBAL   CoordType=Cartesian   XorR=1   Y=0   Z=0   SpecialJt=No   GUID=b9eb894a-ff63-46b5-93c9-5d0232c372c7
   Joint=6   CoordSys=GLOBAL   CoordType=Cartesian   XorR=1   Y=0.5   Z=0   SpecialJt=No   GUID=cb70f831-e005-43b7-bddc-b262c5a523d4
   Joint=7   CoordSys=GLOBAL   CoordType=Cartesian   XorR=1.5   Y=0   Z=0   SpecialJt=No   GUID=81c9c68f-b4c4-491c-b440-221ac23b7bee
   Joint=8   CoordSys=GLOBAL   CoordType=Cartesian   XorR=1.5   Y=0.5   Z=0   SpecialJt=No   GUID=180766a1-eba2-41ba-a00f-70b8d9b74f71
   Joint=9   CoordSys=GLOBAL   CoordType=Cartesian   XorR=2   Y=0   Z=0   SpecialJt=No   GUID=92830254-f8f2-4ec5-94a6-6f8acc9c9fb2
   Joint=10   CoordSys=GLOBAL   CoordType=Cartesian   XorR=2   Y=0.5   Z=0   SpecialJt=No   GUID=b24fe2b8-cd1a-471b-a669-50bff41271af
   Joint=11   CoordSys=GLOBAL   CoordType=Cartesian   XorR=0.5   Y=1   Z=0   SpecialJt=No   GUID=8f366849-dc64-409c-9047-0ed9e031f251
   Joint=12   CoordSys=GLOBAL   CoordType=Cartesian   XorR=0   Y=1   Z=0   SpecialJt=No   GUID=0f4e6ff0-2e7f-4f73-91da-3df5525fb039
   Joint=13   CoordSys=GLOBAL   CoordType=Cartesian   XorR=1   Y=1   Z=0   SpecialJt=No   GUID=b857af46-7580-481e-9c85-e60fde0c9efc
   Joint=14   CoordSys=GLOBAL   CoordType=Cartesian   XorR=1.5   Y=1   Z=0   SpecialJt=No   GUID=c5a8b355-80ec-43d9-8e79-f9c2cae8c3e7
   Joint=15   CoordSys=GLOBAL   CoordType=Cartesian   XorR=2   Y=1   Z=0   SpecialJt=No   GUID=8d5ac4df-0a93-48ea-9b4b-717b1fe83eee
   Joint=16   CoordSys=GLOBAL   CoordType=Cartesian   XorR=0.5   Y=1.5   Z=0   SpecialJt=No   GUID=ec63e5d1-1512-4633-b81e-fd212867a777
   Joint=17   CoordSys=GLOBAL   CoordType=Cartesian   XorR=0   Y=1.5   Z=0   SpecialJt=No   GUID=3e138cd4-9673-44db-a49a-f54f2f3498b4
   Joint=18   CoordSys=GLOBAL   CoordType=Cartesian   XorR=1   Y=1.5   Z=0   SpecialJt=No   GUID=f67ea2cb-29f7-4ba5-a71b-a53bd24fe032
   Joint=19   CoordSys=GLOBAL   CoordType=Cartesian   XorR=1.5   Y=1.5   Z=0   SpecialJt=No   GUID=e6d84b04-f5af-40e8-8131-f1c6da4ccf6b
   Joint=20   CoordSys=GLOBAL   CoordType=Cartesian   XorR=2   Y=1.5   Z=0   SpecialJt=No   GUID=919e74c6-bd19-41e3-af81-768d1b4b61e7
   Joint=21   CoordSys=GLOBAL   CoordType=Cartesian   XorR=0.5   Y=2   Z=0   SpecialJt=No   GUID=ce304d7b-0c84-4ed7-98fe-0289a53dcb04
   Joint=22   CoordSys=GLOBAL   CoordType=Cartesian   XorR=0   Y=2   Z=0   SpecialJt=No   GUID=edad8ad9-fa0e-420a-8f96-38aa0ac747a6
   Joint=23   CoordSys=GLOBAL   CoordType=Cartesian   XorR=1   Y=2   Z=0   SpecialJt=No   GUID=648f1484-3800-4bc0-b6e6-f3f35832adfa
   Joint=24   CoordSys=GLOBAL   CoordType=Cartesian   XorR=1.5   Y=2   Z=0   SpecialJt=No   GUID=059d2983-0674-4696-a813-44c4b37fd55d
   Joint=25   CoordSys=GLOBAL   CoordType=Cartesian   XorR=2   Y=2   Z=0   SpecialJt=No   GUID=c097720d-d17a-4860-9a24-ca3c71686511
 
TABLE:  "JOINT PATTERN DEFINITIONS"
   Pattern=Default
 
TABLE:  "JOINT RESTRAINT ASSIGNMENTS"
   Joint=1   U1=Yes   U2=Yes   U3=Yes   R1=No   R2=No   R3=No
   Joint=2   U1=Yes   U2=Yes   U3=Yes   R1=No   R2=No   R3=No
   Joint=4   U1=Yes   U2=Yes   U3=Yes   R1=No   R2=No   R3=No
   Joint=5   U1=Yes   U2=Yes   U3=Yes   R1=No   R2=No   R3=No
   Joint=7   U1=Yes   U2=Yes   U3=Yes   R1=No   R2=No   R3=No
   Joint=9   U1=Yes   U2=Yes   U3=Yes   R1=No   R2=No   R3=No
   Joint=10   U1=Yes   U2=Yes   U3=Yes   R1=No   R2=No   R3=No
   Joint=12   U1=Yes   U2=Yes   U3=Yes   R1=No   R2=No   R3=No
   Joint=15   U1=Yes   U2=Yes   U3=Yes   R1=No   R2=No   R3=No
   Joint=17   U1=Yes   U2=Yes   U3=Yes   R1=No   R2=No   R3=No
   Joint=20   U1=Yes   U2=Yes   U3=Yes   R1=No   R2=No   R3=No
   Joint=21   U1=Yes   U2=Yes   U3=Yes   R1=No   R2=No   R3=No
   Joint=22   U1=Yes   U2=Yes   U3=Yes   R1=No   R2=No   R3=No
   Joint=23   U1=Yes   U2=Yes   U3=Yes   R1=No   R2=No   R3=No
   Joint=24   U1=Yes   U2=Yes   U3=Yes   R1=No   R2=No   R3=No
   Joint=25   U1=Yes   U2=Yes   U3=Yes   R1=No   R2=No   R3=No
 
TABLE:  "LOAD CASE DEFINITIONS"
   Case=CARGA   Type=LinStatic   InitialCond=Zero   DesTypeOpt="Prog Det"   DesignType=Other   DesActOpt="Prog Det"   DesignAct=Other   AutoType=None   RunCase=Yes   GUID=90b94a2b-0013-42c9-949d-10e69166b8f2
 
TABLE:  "LOAD PATTERN DEFINITIONS"
   LoadPat=DEAD   DesignType=Dead   SelfWtMult=1   GUID=feb1a399-d2c2-4799-b425-4f15ea173640
   LoadPat=CARGA   DesignType=Other   SelfWtMult=1   GUID=92c9f6fb-e1f9-4eef-974f-57627a3db49e
 
TABLE:  "MASS SOURCE"
   MassSource=MSSSRC1   Elements=Yes   Masses=Yes   Loads=No   IsDefault=Yes
 
TABLE:  "MATERIAL PROPERTIES 01 - GENERAL"
   Material=4000Psi   Type=Concrete   Grade="f'c 4000 psi"   SymType=Isotropic   TempDepend=No   Color=Red   GUID=a86e8e36-ef9f-4185-b771-068122c91884   Notes="Customary f'c 4000 psi 2/4/2026 5:23:43 AM"
   Material=A992Fy50   Type=Steel   Grade="Grade 50"   SymType=Isotropic   TempDepend=No   Color=Cyan   Notes="ASTM A992 Grade 50 2/4/2026 5:23:43 AM"
   Material=CONC   Type=Concrete   SymType=Isotropic   TempDepend=No   Color=Magenta
 
TABLE:  "MATERIAL PROPERTIES 02 - BASIC MECHANICAL PROPERTIES"
   Material=4000Psi   UnitWeight=23.5631216161854   UnitMass=2.40276960558926   E1=24855578.0600518   G12=10356490.8583549   U12=0.2   A1=9.89999952793124E-06
   Material=A992Fy50   UnitWeight=76.9728639422648   UnitMass=7.84904737995992   E1=199947978.795958   G12=76903068.767676   U12=0.3   A1=1.16999994421006E-05
   Material=CONC   UnitWeight=23.563121614979   UnitMass=2.40276960611018   E1=25000000   G12=10416666.6666667   U12=0.2   A1=1E-05
 
TABLE:  "MATERIAL PROPERTIES 03A - STEEL DATA"
   Material=A992Fy50   Fy=344737.894475789   Fu=448159.262818526   EffFy=379211.683923368   EffFu=492975.189100378   SSCurveOpt=Simple   SSHysType=Kinematic   SHard=0.015   SMax=0.11   SRup=0.17   FinalSlope=-0.1   CoupModType="Von Mises"
 
TABLE:  "MATERIAL PROPERTIES 03B - CONCRETE DATA"
   Material=4000Psi   Fc=27579.0315580631   eFc=27579.0315580631   LtWtConc=No   SSCurveOpt=Mander   SSHysType=Takeda   SFc=0.00221914   SCap=0.005   FinalSlope=-0.1   FAngle=0   DAngle=0   CoupModType="Modified Darwin-Pecknold"
   Material=CONC   Fc=27579.0315580631   eFc=27579.0315580631   LtWtConc=No   SSCurveOpt=Mander   SSHysType=Takeda   SFc=0.00221914221766202   SCap=0.005   FinalSlope=-0.1   FAngle=0   DAngle=0   CoupModType="Modified Darwin-Pecknold"
 
TABLE:  "MATERIAL PROPERTIES 03J - COUPLED NONLINEAR VON MISES DATA"
   Material=A992Fy50   YieldStress=379211.683923368   LinIsoHard=No   LinKinHard=No   NLIsoSaHard=No
 
TABLE:  "MATERIAL PROPERTIES 06 - DAMPING PARAMETERS"
   Material=4000Psi   ModalRatio=0   VisMass=0   VisStiff=0   HysMass=0   HysStiff=0
   Material=A992Fy50   ModalRatio=0   VisMass=0   VisStiff=0   HysMass=0   HysStiff=0
   Material=CONC   ModalRatio=0   VisMass=0   VisStiff=0   HysMass=0   HysStiff=0
 
TABLE:  "MATERIAL PROPERTIES 09 - ACCEPTANCE CRITERIA"
   Material=4000Psi   IOTens=0.01   LSTens=0.02   CPTens=0.05   IOComp=-0.003   LSComp=-0.006   CPComp=-0.015   IgnoreTens=Yes
   Material=A992Fy50   IOTens=0.01   LSTens=0.02   CPTens=0.05   IOComp=-0.005   LSComp=-0.01   CPComp=-0.02
   Material=CONC   IOTens=0.01   LSTens=0.02   CPTens=0.05   IOComp=-0.003   LSComp=-0.006   CPComp=-0.015   IgnoreTens=Yes
 
TABLE:  "OPTIONS - COLORS - DISPLAY"
   DeviceType=Screen   Points=Blue   LinesFrame=Blue   LinesFrmDL=Blue   LinesCable=Green   LinesTendon=Green   SpringLinks=Green   Restraints=Green   Releases=Green   Axes=Cyan   Text=Black   ShadowLines=Gray8Dark   GuideLines=Gray8Dark _
        Highlight=Red   Selection=10504778   AreaFillBot=Red   AreaFillTop=16744703   AreaFillSd=Red   AreaEdge=DarkRed   SolidF1=Red   SolidF2=Blue   SolidF3=Green   SolidF4=Yellow   SolidF5=White   SolidF6=Cyan   SolidEdge=DarkRed _
        Floor=Gray4   Background=White   BGLowLeft=White   BGLowRight=White   BGUpRight=White   Darkness=0.5
   DeviceType=Printer   Points=Gray8Dark   LinesFrame=Black   LinesFrmDL=Gray4   LinesCable=Black   LinesTendon=Black   SpringLinks=Gray8Dark   Restraints=Gray8Dark   Releases=Gray4   Axes=Black   Text=Black   ShadowLines=Gray4 _
        GuideLines=Gray4   Highlight=Black   Selection=Black   AreaFillBot=Gray4   AreaFillTop=Gray8Dark   AreaFillSd=Gray4   AreaEdge=Black   SolidF1=Gray1Light   SolidF2=Gray2   SolidF3=Gray3   SolidF4=Gray4   SolidF5=Gray5 _
        SolidF6=Gray6   SolidEdge=Black   Floor=Gray4   Background=White   BGLowLeft=White   BGLowRight=White   BGUpRight=White   Darkness=0.5
   DeviceType="Color Printer"   Points=Blue   LinesFrame=Blue   LinesFrmDL=Blue   LinesCable=Green   LinesTendon=Green   SpringLinks=Green   Restraints=Green   Releases=Green   Axes=Cyan   Text=Black   ShadowLines=Gray8Dark _
        GuideLines=Gray8Dark   Highlight=Red   Selection=10504778   AreaFillBot=Red   AreaFillTop=16744703   AreaFillSd=Red   AreaEdge=DarkRed   SolidF1=Red   SolidF2=Blue   SolidF3=Green   SolidF4=Yellow   SolidF5=White   SolidF6=Cyan _
        SolidEdge=DarkRed   Floor=Gray4   Background=White   BGLowLeft=White   BGLowRight=White   BGUpRight=White   Darkness=0.5
 
TABLE:  "OPTIONS - COLORS - OUTPUT"
   DeviceType=Screen   Contour1=13107400   Contour2=6553828   Contour3=Red   Contour4=16639   Contour5=Orange   Contour6=43775   Contour7=54527   Contour8=Yellow   Contour9=65408   Contour10=Green   Contour11=8453888   Contour12=Cyan _
        Contour13=16755200   Contour14=16733440   Contour15=Blue   Transpare=0   Ratio1=Cyan   Ratio2=Green   Ratio3=Yellow   Ratio4=Orange   Ratio5=Red   RatioNotD=Gray4   RatioNotC=Red   RatioVal1=0.5   RatioVal2=0.7   RatioVal3=0.9 _
        RatioVal4=1   DFillPos=Blue   DFillNeg=Red   DFillRPos=Green   DFillRNeg=Green
   DeviceType=Printer   Contour1=Black   Contour2=3158064   Contour3=4210752   Contour4=5263440   Contour5=6316128   Contour6=7368816   Contour7=Gray8Dark   Contour8=Gray7   Contour9=Gray6   Contour10=Gray5   Contour11=Gray4 _
        Contour12=Gray3   Contour13=Gray2   Contour14=Gray1Light   Contour15=White   Transpare=0   Ratio1=Gray2   Ratio2=Gray4   Ratio3=Gray8Dark   Ratio4=4210752   Ratio5=Black   RatioNotD=Gray4   RatioNotC=Black   RatioVal1=0.5 _
        RatioVal2=0.7   RatioVal3=0.9   RatioVal4=1   DFillPos=Gray8Dark   DFillNeg=Gray8Dark   DFillRPos=4210752   DFillRNeg=4210752
   DeviceType="Color Printer"   Contour1=13107400   Contour2=6553828   Contour3=Red   Contour4=16639   Contour5=Orange   Contour6=43775   Contour7=54527   Contour8=Yellow   Contour9=65408   Contour10=Green   Contour11=8453888 _
        Contour12=Cyan   Contour13=16755200   Contour14=16733440   Contour15=Blue   Transpare=0   Ratio1=Cyan   Ratio2=Green   Ratio3=Yellow   Ratio4=Orange   Ratio5=Red   RatioNotD=Gray4   RatioNotC=Red   RatioVal1=0.5   RatioVal2=0.7 _
        RatioVal3=0.9   RatioVal4=1   DFillPos=Blue   DFillNeg=Red   DFillRPos=Green   DFillRNeg=Green
 
TABLE:  "PREFERENCES - ALUMINUM DESIGN - AA 2015"
   THDesign=Envelopes   SRatioLimit=1   Provision=LRFD   LatFact=1.33333333333333   UseLatFact=No   Bridge=No   PhiTy=0.9   PhiTr=0.75   PhiC=0.9   PhiBo=0.9   PhiBr=0.75   PhiVo=0.9   PhiVr=0.75
 
TABLE:  "PREFERENCES - COLD FORMED DESIGN - AISI-16"
   THDesign=Envelopes   FrameType="Braced Frame"   SRatioLimit=1   SOMethod="General 2nd Order"   Provision=LRFD   LatFact=1.33333333333333   UseLatFact=No   PhiTy=0.9   PhiTr=0.75   PhiC=0.85   PhiB=0.9   PhiBPipe=0.95   PhiV=0.95
 
TABLE:  "PREFERENCES - CONCRETE DESIGN - ACI 318-19"
   THDesign=Envelopes   NumCurves=24   NumPoints=11   MinEccen=Yes   BCCDesign=Yes   IgnoreBPu=Yes   CTorsion=Yes   PatLLF=0.75   UFLimit=0.95   SeisCat=D   Rho=1   Sds=0.5   PhiT=0.9   PhiCTied=0.65   PhiCSpiral=0.75   PhiV=0.75 _
        PhiVSeismic=0.6   PhiVJoint=0.85   TanTheta=1
 
TABLE:  "PREFERENCES - CONCRETE SHELL DESIGN - EUROCODE 2-2004"
   Country="CEN Default"   GammaS=1.15   GammaC=1.5   AlphaCC=1   AlphaCT=1   CrackCond="Program Determined"   ShrDesMet="Method 1"   CotTheta=1
 
TABLE:  "PREFERENCES - DIMENSIONAL"
   MergeTol=0.001   FineGrid=0.25   Nudge=0.25   SelectTol=3   SnapTol=12   SLineThick=1   PLineThick=4   MaxFont=8   MinFont=3   AutoZoom=10   ShrinkFact=70   TextFileLen=240
 
TABLE:  "PREFERENCES - STEEL DESIGN - AISC 360-16"
   THDesign=Envelopes   FrameType=SMF   PatLLF=0.75   SRatioLimit=0.95   MaxIter=1   SDC=D   SeisCode=No   SeisLoad=No   ImpFactor=1   SystemRho=1   SystemSds=0.5   SystemR=8   SystemCd=5.5   Omega0=3   Provision=LRFD _
        AMethod="Direct Analysis"   SOMethod="General 2nd Order"   SRMethod="Tau-b Fixed"   NLCoeff=0.002   PhiB=0.9   PhiC=0.9   PhiTY=0.9   PhiTF=0.75   PhiV=0.9   PhiVRolledI=1   PhiVT=0.9   PlugWeld=Yes   HSSWelding=ERW   HSSReduceT=No _
        CheckDefl=No   DLRat=120   SDLAndLLRat=120   LLRat=360   TotalRat=240   NetRat=240
 
TABLE:  "PROGRAM CONTROL"
   ProgramName=SAP2000   Version=24.1.0   CurrUnits="KN, m, C"   SteelCode="AISC 360-16"   ConcCode="ACI 318-19"   AlumCode="AA 2015"   ColdCode=AISI-16   RegenHinge=Yes
 
TABLE:  "PROJECT INFORMATION"
   Item="Company Name"
   Item="Client Name"
   Item="Project Name"
   Item="Project Number"
   Item="Model Name"
   Item="Model Description"
   Item="Revision Number"
   Item="Frame Type"
   Item=Engineer
   Item=Checker
   Item=Supervisor
   Item="Issue Code"
   Item="Design Code"
 
TABLE:  "REBAR SIZES"
   RebarID=#2   Area=3.2258E-05   Diameter=0.00635
   RebarID=#3   Area=7.09675996154547E-05   Diameter=0.009525
   RebarID=#4   Area=0.000129032001922727   Diameter=0.0127
   RebarID=#5   Area=0.000199999601538181   Diameter=0.015875
   RebarID=#6   Area=0.000283870398461819   Diameter=0.01905
   RebarID=#7   Area=0.000387096015381813   Diameter=0.022225
   RebarID=#8   Area=0.000509676413843632   Diameter=0.0254
   RebarID=#9   Area=0.00064516   Diameter=0.0286512005329132
   RebarID=#10   Area=0.00081935318769455   Diameter=0.0322579995155334
   RebarID=#11   Area=0.00100644956308365   Diameter=0.0358139991521835
   RebarID=#14   Area=0.00145161   Diameter=0.0430021989583969
   RebarID=#18   Area=0.00258064   Diameter=0.0573277992248535
   RebarID=10M   Area=0.000100000002655387   Diameter=0.011300000667572
   RebarID=15M   Area=0.000200000005310774   Diameter=0.0159999999403954
   RebarID=20M   Area=0.000300000017579794   Diameter=0.0194999997854233
   RebarID=25M   Area=0.000500000022890568   Diameter=0.0252000016093254
   RebarID=30M   Area=0.000700000008974075   Diameter=0.0299000008821487
   RebarID=35M   Area=0.00100000004578114   Diameter=0.0357000011444092
   RebarID=45M   Area=0.00150000010712624   Diameter=0.0437000003576279
   RebarID=55M   Area=0.00250000007599831   Diameter=0.0564000033855438
   RebarID=6d   Area=2.83000004149973E-05   Diameter=0.006000000166893
   RebarID=8d   Area=5.02999995571375E-05   Diameter=0.00799999997019768
   RebarID=10d   Area=7.85000013634562E-05   Diameter=0.00999999977350235
   RebarID=12d   Area=0.000113000009249449   Diameter=0.012000000333786
   RebarID=14d   Area=0.000154000010818839   Diameter=0.0140000008940697
   RebarID=16d   Area=0.000201000015431643   Diameter=0.0159999999403954
   RebarID=20d   Area=0.000314000005453825   Diameter=0.0199999995470047
   RebarID=25d   Area=0.000491000008711815   Diameter=0.0250000001907349
   RebarID=26d   Area=0.000531000029001236   Diameter=0.0259999997138977
   RebarID=28d   Area=0.000616000043275356   Diameter=0.0280000017881393
   RebarID=N12   Area=0.000113000009249449   Diameter=0.012000000333786
   RebarID=N16   Area=0.000201000015431643   Diameter=0.0159999999403954
   RebarID=N20   Area=0.000314000005453825   Diameter=0.0199999995470047
   RebarID=N24   Area=0.000452000036997795   Diameter=0.024000000667572
   RebarID=N28   Area=0.000616000043275356   Diameter=0.0280000017881393
   RebarID=N32   Area=0.00080400006172657   Diameter=0.0319999998807907
   RebarID=N36   Area=0.00102000001747131   Diameter=0.036000001001358
 
END TABLE DATA
