File C:\Users\j-b-j\Documents\Calcpad-7.5.7\awatif-2.0.0\tests\results\placa_thin.$2k was saved on m/d/yy at h:mm:ss
 
TABLE:  "ACTIVE DEGREES OF FREEDOM"
   UX=Yes   UY=Yes   UZ=Yes   RX=Yes   RY=Yes   RZ=Yes
 
TABLE:  "ANALYSIS OPTIONS"
   Solver=Advanced   SolverProc=Auto   Force32Bit=No   StiffCase=None   GeomMod=None   HingeOpt="In Elements"   NumAThreads=0   MaxFileSize=0   NumDThreads=0   NumRThreads=0   UseMMFiles="Program Determined"   AllowDiff=No
 
TABLE:  "AREA LOADS - UNIFORM"
   Area=A1   LoadPat=DEAD   CoordSys=GLOBAL   Dir=Z   UnifLoad=10
   Area=A2   LoadPat=DEAD   CoordSys=GLOBAL   Dir=Z   UnifLoad=10
   Area=A3   LoadPat=DEAD   CoordSys=GLOBAL   Dir=Z   UnifLoad=10
   Area=A4   LoadPat=DEAD   CoordSys=GLOBAL   Dir=Z   UnifLoad=10
   Area=A5   LoadPat=DEAD   CoordSys=GLOBAL   Dir=Z   UnifLoad=10
   Area=A6   LoadPat=DEAD   CoordSys=GLOBAL   Dir=Z   UnifLoad=10
   Area=A7   LoadPat=DEAD   CoordSys=GLOBAL   Dir=Z   UnifLoad=10
   Area=A8   LoadPat=DEAD   CoordSys=GLOBAL   Dir=Z   UnifLoad=10
   Area=A9   LoadPat=DEAD   CoordSys=GLOBAL   Dir=Z   UnifLoad=10
   Area=A10   LoadPat=DEAD   CoordSys=GLOBAL   Dir=Z   UnifLoad=10
   Area=A11   LoadPat=DEAD   CoordSys=GLOBAL   Dir=Z   UnifLoad=10
   Area=A12   LoadPat=DEAD   CoordSys=GLOBAL   Dir=Z   UnifLoad=10
   Area=A13   LoadPat=DEAD   CoordSys=GLOBAL   Dir=Z   UnifLoad=10
   Area=A14   LoadPat=DEAD   CoordSys=GLOBAL   Dir=Z   UnifLoad=10
   Area=A15   LoadPat=DEAD   CoordSys=GLOBAL   Dir=Z   UnifLoad=10
   Area=A16   LoadPat=DEAD   CoordSys=GLOBAL   Dir=Z   UnifLoad=10
   Area=A17   LoadPat=DEAD   CoordSys=GLOBAL   Dir=Z   UnifLoad=10
   Area=A18   LoadPat=DEAD   CoordSys=GLOBAL   Dir=Z   UnifLoad=10
   Area=A19   LoadPat=DEAD   CoordSys=GLOBAL   Dir=Z   UnifLoad=10
   Area=A20   LoadPat=DEAD   CoordSys=GLOBAL   Dir=Z   UnifLoad=10
# ... 44 like lines cut
 
TABLE:  "AREA SECTION ASSIGNMENTS"
   Area=A1   Section=PLACA   MatProp=Default
   Area=A2   Section=PLACA   MatProp=Default
   Area=A3   Section=PLACA   MatProp=Default
   Area=A4   Section=PLACA   MatProp=Default
   Area=A5   Section=PLACA   MatProp=Default
   Area=A6   Section=PLACA   MatProp=Default
   Area=A7   Section=PLACA   MatProp=Default
   Area=A8   Section=PLACA   MatProp=Default
   Area=A9   Section=PLACA   MatProp=Default
   Area=A10   Section=PLACA   MatProp=Default
   Area=A11   Section=PLACA   MatProp=Default
   Area=A12   Section=PLACA   MatProp=Default
   Area=A13   Section=PLACA   MatProp=Default
   Area=A14   Section=PLACA   MatProp=Default
   Area=A15   Section=PLACA   MatProp=Default
   Area=A16   Section=PLACA   MatProp=Default
   Area=A17   Section=PLACA   MatProp=Default
   Area=A18   Section=PLACA   MatProp=Default
   Area=A19   Section=PLACA   MatProp=Default
   Area=A20   Section=PLACA   MatProp=Default
# ... 44 like lines cut
 
TABLE:  "AREA SECTION PROPERTIES"
   Section=PLACA   Material=CONC   MatAngle=0   AreaType=Shell   Type=Shell-Thin   DrillDOF=No   Thickness=0.2   BendThick=0.2   Color=Yellow   F11Mod=1   F22Mod=1   F12Mod=1   M11Mod=1   M22Mod=1   M12Mod=1   V13Mod=1   V23Mod=1   MMod=1   WMod=1
 
TABLE:  "AREA SECTION PROPERTY DESIGN PARAMETERS"
   Section=PLACA   RebarMat=None   RebarOpt=Default
 
TABLE:  "AREA SECTION PROPERTY - TIME DEPENDENT"
   Section=PLACA   TypeSize=Auto   AutoSFSize=1
 
TABLE:  "AUTO WAVE 3 - WAVE CHARACTERISTICS - GENERAL"
   WaveChar=Default   WaveType="From Theory"   KinFactor=1   SWaterDepth=45   WaveHeight=18   WavePeriod=12   WaveTheory=Linear
 
TABLE:  "CASE - MODAL 1 - GENERAL"
   Case=MODAL   ModeType=Eigen   MaxNumModes=12   MinNumModes=1   EigenShift=0   EigenCutoff=0   EigenTol=1E-09   AutoShift=Yes
 
TABLE:  "CASE - STATIC 1 - LOAD ASSIGNMENTS"
   Case=DEAD   LoadType="Load pattern"   LoadName=DEAD   LoadSF=1
 
TABLE:  "CONNECTIVITY - AREA"
   Area=A1   Joint1=1   Joint2=2   Joint3=11   Joint4=10   GUID=8f416cbd-6b1e-4d7e-b03d-980042726cee
   Area=A2   Joint1=2   Joint2=3   Joint3=12   Joint4=11   GUID=ae168059-21ae-4229-838b-e93c66086543
   Area=A3   Joint1=3   Joint2=4   Joint3=13   Joint4=12   GUID=1ca76527-199d-4da7-bd88-3eabaac9c96a
   Area=A4   Joint1=4   Joint2=5   Joint3=14   Joint4=13   GUID=9d5be810-3530-4b62-ad60-f9f41650e19b
   Area=A5   Joint1=5   Joint2=6   Joint3=15   Joint4=14   GUID=f6b97f4f-58ff-48ed-a651-c2eb9618d7db
   Area=A6   Joint1=6   Joint2=7   Joint3=16   Joint4=15   GUID=5f4e190f-8ee4-433c-9385-51b04d35403d
   Area=A7   Joint1=7   Joint2=8   Joint3=17   Joint4=16   GUID=20be5525-5f54-4c2e-957b-29e57f54cc72
   Area=A8   Joint1=8   Joint2=9   Joint3=18   Joint4=17   GUID=1a876b61-b5a5-4a5d-a9ed-1c5fbea2e878
   Area=A9   Joint1=10   Joint2=11   Joint3=20   Joint4=19   GUID=dfe2be6a-0c22-4674-8b1a-57dc89322735
   Area=A10   Joint1=11   Joint2=12   Joint3=21   Joint4=20   GUID=cd08043a-120d-4ba2-9d6b-a1c2c855ffbe
   Area=A11   Joint1=12   Joint2=13   Joint3=22   Joint4=21   GUID=93b135e8-8ce3-4b96-b38d-dcf5fa8f4cce
   Area=A12   Joint1=13   Joint2=14   Joint3=23   Joint4=22   GUID=2bdee9bb-9fe7-49ce-a369-7b85ffe164b2
   Area=A13   Joint1=14   Joint2=15   Joint3=24   Joint4=23   GUID=17f30050-86f3-460e-afd2-47f432b5aa53
   Area=A14   Joint1=15   Joint2=16   Joint3=25   Joint4=24   GUID=f6ace3ce-2098-4d46-bed3-c94ae6a6d72f
   Area=A15   Joint1=16   Joint2=17   Joint3=26   Joint4=25   GUID=2504b510-b6f3-4ef2-a40e-d8c23da5329c
   Area=A16   Joint1=17   Joint2=18   Joint3=27   Joint4=26   GUID=ed17e958-425a-4276-b949-32c9efcc734a
   Area=A17   Joint1=19   Joint2=20   Joint3=29   Joint4=28   GUID=0b46c7d8-0fcc-4378-b609-77ae528aa9cb
   Area=A18   Joint1=20   Joint2=21   Joint3=30   Joint4=29   GUID=965bb1b2-dcda-438f-aa3f-2b7a16eb677c
   Area=A19   Joint1=21   Joint2=22   Joint3=31   Joint4=30   GUID=c4fc3ead-f152-4270-bd20-aa05470f4b79
   Area=A20   Joint1=22   Joint2=23   Joint3=32   Joint4=31   GUID=aded3a67-25d2-4ffb-b9cd-be61abf23e18
   Area=A21   Joint1=23   Joint2=24   Joint3=33   Joint4=32   GUID=d64a65c8-dd6c-4ffc-833e-978e2c6bdf51
   Area=A22   Joint1=24   Joint2=25   Joint3=34   Joint4=33   GUID=bc35541e-bb6e-4292-8196-2007c75cfe23
   Area=A23   Joint1=25   Joint2=26   Joint3=35   Joint4=34   GUID=c9a476cf-b05d-4f76-b894-688bcd7c3c2b
   Area=A24   Joint1=26   Joint2=27   Joint3=36   Joint4=35   GUID=ea830620-0536-4b04-8356-04a0a9163293
   Area=A25   Joint1=28   Joint2=29   Joint3=38   Joint4=37   GUID=c76040bb-6eb9-4816-affb-68d966cd1d08
   Area=A26   Joint1=29   Joint2=30   Joint3=39   Joint4=38   GUID=464058e7-d452-46f1-b0fb-bf2bfca92a77
   Area=A27   Joint1=30   Joint2=31   Joint3=40   Joint4=39   GUID=50988c27-c56a-4921-b1f5-b6cff6650c08
   Area=A28   Joint1=31   Joint2=32   Joint3=41   Joint4=40   GUID=91ff4bdb-b0d8-4c9a-83e3-8bc693b3f0f7
   Area=A29   Joint1=32   Joint2=33   Joint3=42   Joint4=41   GUID=2ad96d27-f468-4e56-be39-561a0e3087e9
   Area=A30   Joint1=33   Joint2=34   Joint3=43   Joint4=42   GUID=641cd4e2-b025-44f4-a746-ce3ddfb01b52
   Area=A31   Joint1=34   Joint2=35   Joint3=44   Joint4=43   GUID=24380030-3815-405e-bd9c-d0d6ca525c30
   Area=A32   Joint1=35   Joint2=36   Joint3=45   Joint4=44   GUID=165f61e5-09b6-45e8-9c6c-d502a9cbbe3b
   Area=A33   Joint1=37   Joint2=38   Joint3=47   Joint4=46   GUID=e4042c17-1de3-4a02-84b1-8586d653026b
   Area=A34   Joint1=38   Joint2=39   Joint3=48   Joint4=47   GUID=649a4da1-0fd7-4ac6-9a03-c069f8ee910c
   Area=A35   Joint1=39   Joint2=40   Joint3=49   Joint4=48   GUID=8878fa73-33eb-402c-845c-5967fabeaea7
   Area=A36   Joint1=40   Joint2=41   Joint3=50   Joint4=49   GUID=ab47be52-4f49-444d-8caa-cc6fb3c6dff0
   Area=A37   Joint1=41   Joint2=42   Joint3=51   Joint4=50   GUID=606eec1a-7e24-4f3b-9389-b4d9d0ab2444
   Area=A38   Joint1=42   Joint2=43   Joint3=52   Joint4=51   GUID=a0e537d0-de7e-455d-9123-99da2ee32cae
   Area=A39   Joint1=43   Joint2=44   Joint3=53   Joint4=52   GUID=b61ba76a-ce2b-445f-92e5-2935e1697f97
   Area=A40   Joint1=44   Joint2=45   Joint3=54   Joint4=53   GUID=d228ece7-cd94-4471-a9e9-62c87acfdbcd
   Area=A41   Joint1=46   Joint2=47   Joint3=56   Joint4=55   GUID=6a0aaa40-5f58-4d0d-bf29-d11b8b9e60d3
   Area=A42   Joint1=47   Joint2=48   Joint3=57   Joint4=56   GUID=3a74c03d-52d2-4bb8-93c3-298619cef69e
   Area=A43   Joint1=48   Joint2=49   Joint3=58   Joint4=57   GUID=b921d4c1-3512-4e52-9440-bc09380722f8
   Area=A44   Joint1=49   Joint2=50   Joint3=59   Joint4=58   GUID=a80c8a60-59dc-4e9d-9a78-71238ef41924
   Area=A45   Joint1=50   Joint2=51   Joint3=60   Joint4=59   GUID=5dcf3f7a-b9fe-47eb-b2bd-b73746820aa6
   Area=A46   Joint1=51   Joint2=52   Joint3=61   Joint4=60   GUID=246993c1-8224-4def-84e0-45844a95bcf3
   Area=A47   Joint1=52   Joint2=53   Joint3=62   Joint4=61   GUID=f96600c0-2ab0-41f1-9968-d594e0545e67
   Area=A48   Joint1=53   Joint2=54   Joint3=63   Joint4=62   GUID=5d568940-e4d4-4ea4-9222-ebbd6776b55f
   Area=A49   Joint1=55   Joint2=56   Joint3=65   Joint4=64   GUID=9d0c28ff-6d28-4cde-9d11-14065b2302e5
   Area=A50   Joint1=56   Joint2=57   Joint3=66   Joint4=65   GUID=44f80158-a6c3-4a28-93a8-7f61ec5620bd
   Area=A51   Joint1=57   Joint2=58   Joint3=67   Joint4=66   GUID=a59817b6-4845-42f3-87f9-5725025c76c9
   Area=A52   Joint1=58   Joint2=59   Joint3=68   Joint4=67   GUID=4c54e0c6-66a1-4706-bf51-c0202f30bb12
   Area=A53   Joint1=59   Joint2=60   Joint3=69   Joint4=68   GUID=11098dd7-8630-4c9e-919d-8c134d6cb37f
   Area=A54   Joint1=60   Joint2=61   Joint3=70   Joint4=69   GUID=7b5e339c-6b10-4455-91b4-b31af0935ed6
   Area=A55   Joint1=61   Joint2=62   Joint3=71   Joint4=70   GUID=ea1e3aca-639c-4659-abb2-40f8cd02e286
   Area=A56   Joint1=62   Joint2=63   Joint3=72   Joint4=71   GUID=48bc30f8-6b15-40f2-9e0e-54fe5b490106
   Area=A57   Joint1=64   Joint2=65   Joint3=74   Joint4=73   GUID=18f27cfe-cea2-4c76-b2ee-db9e2de39266
   Area=A58   Joint1=65   Joint2=66   Joint3=75   Joint4=74   GUID=0f83f024-f444-4eb1-ace7-8fdf0058f082
   Area=A59   Joint1=66   Joint2=67   Joint3=76   Joint4=75   GUID=8d9525cb-3365-4637-bfed-846e95f21415
   Area=A60   Joint1=67   Joint2=68   Joint3=77   Joint4=76   GUID=c2d41952-4e7b-4316-a899-71b2cd3f6079
   Area=A61   Joint1=68   Joint2=69   Joint3=78   Joint4=77   GUID=bb0c164f-f110-4961-a54e-6f126ed99ce9
   Area=A62   Joint1=69   Joint2=70   Joint3=79   Joint4=78   GUID=66f44ce9-6331-4631-ad2c-8d5dbfdb521c
   Area=A63   Joint1=70   Joint2=71   Joint3=80   Joint4=79   GUID=1f9f8bbd-1211-4459-ac10-b995a47eb5d6
   Area=A64   Joint1=71   Joint2=72   Joint3=81   Joint4=80   GUID=e40ea735-df60-426a-ab5b-d4999db88835
 
TABLE:  "COORDINATE SYSTEMS"
   Name=GLOBAL   Type=Cartesian   X=0   Y=0   Z=0   AboutZ=0   AboutY=0   AboutX=0
 
TABLE:  "DATABASE DOCUMENTATION"
 
TABLE:  "DATABASE FORMAT TYPES"
   UnitsCurr=Yes   OverrideE=No
 
TABLE:  "FUNCTION - PLOT FUNCTIONS"
   PlotFunc="Input Energy"   Type=Energy   Component=Input   Mode=All
 
TABLE:  "FUNCTION - POWER SPECTRAL DENSITY - USER"
   Name=UNIFPSD   Frequency=0   Value=1
   Name=UNIFPSD   Frequency=1   Value=1
 
TABLE:  "FUNCTION - RESPONSE SPECTRUM - USER"
   Name=UNIFRS   Period=0   Accel=1   FuncDamp=0.05
   Name=UNIFRS   Period=1   Accel=1
 
TABLE:  "FUNCTION - STEADY STATE - USER"
   Name=UNIFSS   Frequency=0   Value=1
   Name=UNIFSS   Frequency=1   Value=1
 
TABLE:  "FUNCTION - TIME HISTORY - USER"
   Name=RAMPTH   Time=0   Value=0
   Name=RAMPTH   Time=1   Value=1
   Name=RAMPTH   Time=4   Value=1
   Name=UNIFTH   Time=0   Value=1
   Name=UNIFTH   Time=1   Value=1
 
TABLE:  "GROUPS 1 - DEFINITIONS"
   GroupName=ALL   Selection=Yes   SectionCut=Yes   Steel=Yes   Concrete=Yes   Aluminum=Yes   ColdFormed=Yes   Stage=Yes   Bridge=Yes   AutoSeismic=No   AutoWind=No   SelDesSteel=No   SelDesAlum=No   SelDesCold=No   MassWeight=Yes   Color=Red
 
TABLE:  "JOINT COORDINATES"
   Joint=1   CoordSys=GLOBAL   CoordType=Cartesian   XorR=0   Y=0   Z=0   SpecialJt=Yes   GUID=44d9d9ae-e4a0-4fe4-94d8-6901ae694350
   Joint=2   CoordSys=GLOBAL   CoordType=Cartesian   XorR=0.25   Y=0   Z=0   SpecialJt=Yes   GUID=dd905deb-516c-4a5d-b465-cc321cec7a34
   Joint=3   CoordSys=GLOBAL   CoordType=Cartesian   XorR=0.5   Y=0   Z=0   SpecialJt=Yes   GUID=7501833f-e540-4802-b8b2-439eae70038d
   Joint=4   CoordSys=GLOBAL   CoordType=Cartesian   XorR=0.75   Y=0   Z=0   SpecialJt=Yes   GUID=8c000c14-1420-4dbe-95c4-009cf1762e0c
   Joint=5   CoordSys=GLOBAL   CoordType=Cartesian   XorR=1   Y=0   Z=0   SpecialJt=Yes   GUID=532a9b3c-ccf4-48f2-a550-df917ff647ab
   Joint=6   CoordSys=GLOBAL   CoordType=Cartesian   XorR=1.25   Y=0   Z=0   SpecialJt=Yes   GUID=17656d0c-890e-4ed9-af71-40a03528a540
   Joint=7   CoordSys=GLOBAL   CoordType=Cartesian   XorR=1.5   Y=0   Z=0   SpecialJt=Yes   GUID=ceaa1587-f47d-4b0c-b843-8c44879ad65e
   Joint=8   CoordSys=GLOBAL   CoordType=Cartesian   XorR=1.75   Y=0   Z=0   SpecialJt=Yes   GUID=4434005b-f9c3-4f35-bf13-2e72c55be7d2
   Joint=9   CoordSys=GLOBAL   CoordType=Cartesian   XorR=2   Y=0   Z=0   SpecialJt=Yes   GUID=e159e439-3e05-4b51-bef2-c74589f66aa9
   Joint=10   CoordSys=GLOBAL   CoordType=Cartesian   XorR=0   Y=0.25   Z=0   SpecialJt=Yes   GUID=851a5020-f90b-49a9-86da-dbbf5729d10c
   Joint=11   CoordSys=GLOBAL   CoordType=Cartesian   XorR=0.25   Y=0.25   Z=0   SpecialJt=Yes   GUID=65fd842b-af1f-4cb7-bd91-c6ffa4a36d46
   Joint=12   CoordSys=GLOBAL   CoordType=Cartesian   XorR=0.5   Y=0.25   Z=0   SpecialJt=Yes   GUID=5206d54c-a67a-41ac-8fb6-df0df62c7551
   Joint=13   CoordSys=GLOBAL   CoordType=Cartesian   XorR=0.75   Y=0.25   Z=0   SpecialJt=Yes   GUID=28fc52f8-dc1e-4ec6-a312-b3eb3c445fab
   Joint=14   CoordSys=GLOBAL   CoordType=Cartesian   XorR=1   Y=0.25   Z=0   SpecialJt=Yes   GUID=df929adb-2efd-40e6-9030-72073651ac9d
   Joint=15   CoordSys=GLOBAL   CoordType=Cartesian   XorR=1.25   Y=0.25   Z=0   SpecialJt=Yes   GUID=d481958f-39cd-409e-aa48-3ddbe3aab1ed
   Joint=16   CoordSys=GLOBAL   CoordType=Cartesian   XorR=1.5   Y=0.25   Z=0   SpecialJt=Yes   GUID=82639324-7336-4824-879c-d344a20a7f41
   Joint=17   CoordSys=GLOBAL   CoordType=Cartesian   XorR=1.75   Y=0.25   Z=0   SpecialJt=Yes   GUID=6ce8929e-ddf7-4606-a887-a3a208c777d1
   Joint=18   CoordSys=GLOBAL   CoordType=Cartesian   XorR=2   Y=0.25   Z=0   SpecialJt=Yes   GUID=82dcc609-e528-45d7-804d-6fd07b96c28c
   Joint=19   CoordSys=GLOBAL   CoordType=Cartesian   XorR=0   Y=0.5   Z=0   SpecialJt=Yes   GUID=8956c673-d1fd-4083-8541-67d7201abec0
   Joint=20   CoordSys=GLOBAL   CoordType=Cartesian   XorR=0.25   Y=0.5   Z=0   SpecialJt=Yes   GUID=be1a6a73-8e91-455c-ad07-fcd4943fd316
   Joint=21   CoordSys=GLOBAL   CoordType=Cartesian   XorR=0.5   Y=0.5   Z=0   SpecialJt=Yes   GUID=c94bd783-d1c5-4e43-be94-f22ef5a118ab
   Joint=22   CoordSys=GLOBAL   CoordType=Cartesian   XorR=0.75   Y=0.5   Z=0   SpecialJt=Yes   GUID=7ce11296-b448-4a4d-8aa6-b47be204059f
   Joint=23   CoordSys=GLOBAL   CoordType=Cartesian   XorR=1   Y=0.5   Z=0   SpecialJt=Yes   GUID=e8e804f1-8e92-4602-b80d-ae8e97e4ca19
   Joint=24   CoordSys=GLOBAL   CoordType=Cartesian   XorR=1.25   Y=0.5   Z=0   SpecialJt=Yes   GUID=383fec0a-7213-44c2-a89f-2e7fe1a53042
   Joint=25   CoordSys=GLOBAL   CoordType=Cartesian   XorR=1.5   Y=0.5   Z=0   SpecialJt=Yes   GUID=d10f4780-c35f-454e-88e2-b4b68e43e284
   Joint=26   CoordSys=GLOBAL   CoordType=Cartesian   XorR=1.75   Y=0.5   Z=0   SpecialJt=Yes   GUID=6e9c6c6b-2ab9-4940-9a71-6b0180a16438
   Joint=27   CoordSys=GLOBAL   CoordType=Cartesian   XorR=2   Y=0.5   Z=0   SpecialJt=Yes   GUID=e78646ad-7e24-427e-8770-82c00843a37e
   Joint=28   CoordSys=GLOBAL   CoordType=Cartesian   XorR=0   Y=0.75   Z=0   SpecialJt=Yes   GUID=0feb7571-8104-4fd9-9c8e-4e25d26ce486
   Joint=29   CoordSys=GLOBAL   CoordType=Cartesian   XorR=0.25   Y=0.75   Z=0   SpecialJt=Yes   GUID=e6d7aeee-092a-4893-8ecb-9f5968d76344
   Joint=30   CoordSys=GLOBAL   CoordType=Cartesian   XorR=0.5   Y=0.75   Z=0   SpecialJt=Yes   GUID=1ab0b1f2-160c-4cb7-a6fa-c5e6b7902d26
   Joint=31   CoordSys=GLOBAL   CoordType=Cartesian   XorR=0.75   Y=0.75   Z=0   SpecialJt=Yes   GUID=14ecace1-b66a-4cda-817c-71c0d4f93369
   Joint=32   CoordSys=GLOBAL   CoordType=Cartesian   XorR=1   Y=0.75   Z=0   SpecialJt=Yes   GUID=cba117b8-c78c-4b8d-a65b-a8da8d83c558
   Joint=33   CoordSys=GLOBAL   CoordType=Cartesian   XorR=1.25   Y=0.75   Z=0   SpecialJt=Yes   GUID=18a9d28b-0d20-45c1-af79-1530fcbc2b72
   Joint=34   CoordSys=GLOBAL   CoordType=Cartesian   XorR=1.5   Y=0.75   Z=0   SpecialJt=Yes   GUID=0b20a948-4ca8-4172-9d07-0a344986ddb9
   Joint=35   CoordSys=GLOBAL   CoordType=Cartesian   XorR=1.75   Y=0.75   Z=0   SpecialJt=Yes   GUID=4f4dcf9a-b23c-4bf0-a92f-8010de6b46c9
   Joint=36   CoordSys=GLOBAL   CoordType=Cartesian   XorR=2   Y=0.75   Z=0   SpecialJt=Yes   GUID=e8b98e82-23c2-4715-8a5c-8b70c22c451f
   Joint=37   CoordSys=GLOBAL   CoordType=Cartesian   XorR=0   Y=1   Z=0   SpecialJt=Yes   GUID=9bd72c36-d114-4ac6-9763-039f03e5daf6
   Joint=38   CoordSys=GLOBAL   CoordType=Cartesian   XorR=0.25   Y=1   Z=0   SpecialJt=Yes   GUID=4a064a1e-5f6a-4898-8d4b-e551f8447519
   Joint=39   CoordSys=GLOBAL   CoordType=Cartesian   XorR=0.5   Y=1   Z=0   SpecialJt=Yes   GUID=9b123aab-a6f5-4614-b53c-3e310b3a27e1
   Joint=40   CoordSys=GLOBAL   CoordType=Cartesian   XorR=0.75   Y=1   Z=0   SpecialJt=Yes   GUID=3f2d4db3-dbc5-46c4-a17d-91c39a12241f
   Joint=41   CoordSys=GLOBAL   CoordType=Cartesian   XorR=1   Y=1   Z=0   SpecialJt=Yes   GUID=40b7e67e-1e5b-4060-b68b-b64e29d95c56
   Joint=42   CoordSys=GLOBAL   CoordType=Cartesian   XorR=1.25   Y=1   Z=0   SpecialJt=Yes   GUID=7aa9b1c6-c0ea-4c6f-9f57-d9485f15b399
   Joint=43   CoordSys=GLOBAL   CoordType=Cartesian   XorR=1.5   Y=1   Z=0   SpecialJt=Yes   GUID=586d94fa-1fb4-47b5-af54-316d82fcd824
   Joint=44   CoordSys=GLOBAL   CoordType=Cartesian   XorR=1.75   Y=1   Z=0   SpecialJt=Yes   GUID=e0259bcb-aaea-4025-a988-e67b59922a39
   Joint=45   CoordSys=GLOBAL   CoordType=Cartesian   XorR=2   Y=1   Z=0   SpecialJt=Yes   GUID=0a4566b7-72a9-4262-b5b1-260079f164ce
   Joint=46   CoordSys=GLOBAL   CoordType=Cartesian   XorR=0   Y=1.25   Z=0   SpecialJt=Yes   GUID=59890ad7-6db5-4f67-bf57-af6bd0216f87
   Joint=47   CoordSys=GLOBAL   CoordType=Cartesian   XorR=0.25   Y=1.25   Z=0   SpecialJt=Yes   GUID=a6300940-ff8d-4762-8a53-cb67ab983abb
   Joint=48   CoordSys=GLOBAL   CoordType=Cartesian   XorR=0.5   Y=1.25   Z=0   SpecialJt=Yes   GUID=a0494e51-7cc1-4869-96e5-b7021bacfdc7
   Joint=49   CoordSys=GLOBAL   CoordType=Cartesian   XorR=0.75   Y=1.25   Z=0   SpecialJt=Yes   GUID=19b923d6-4058-4814-82c8-5d9c6c201a27
   Joint=50   CoordSys=GLOBAL   CoordType=Cartesian   XorR=1   Y=1.25   Z=0   SpecialJt=Yes   GUID=a26f6770-4820-49ed-ab93-ff65b0c8d30f
   Joint=51   CoordSys=GLOBAL   CoordType=Cartesian   XorR=1.25   Y=1.25   Z=0   SpecialJt=Yes   GUID=5cfceaac-849a-4d4a-957e-58f98b47e223
   Joint=52   CoordSys=GLOBAL   CoordType=Cartesian   XorR=1.5   Y=1.25   Z=0   SpecialJt=Yes   GUID=002f7f6e-3e57-489a-9f24-076b8a743abc
   Joint=53   CoordSys=GLOBAL   CoordType=Cartesian   XorR=1.75   Y=1.25   Z=0   SpecialJt=Yes   GUID=864ac4aa-eebb-4a1e-b53e-9557929066ca
   Joint=54   CoordSys=GLOBAL   CoordType=Cartesian   XorR=2   Y=1.25   Z=0   SpecialJt=Yes   GUID=e97ced6d-3ff5-4564-bf70-67a3e47dabf0
   Joint=55   CoordSys=GLOBAL   CoordType=Cartesian   XorR=0   Y=1.5   Z=0   SpecialJt=Yes   GUID=7e273ae9-5d40-4f3c-829b-c8694d5e4ac2
   Joint=56   CoordSys=GLOBAL   CoordType=Cartesian   XorR=0.25   Y=1.5   Z=0   SpecialJt=Yes   GUID=f1fb6cd4-a096-4012-9ea3-c7e49d3e0459
   Joint=57   CoordSys=GLOBAL   CoordType=Cartesian   XorR=0.5   Y=1.5   Z=0   SpecialJt=Yes   GUID=7435b80b-086a-465e-8d2d-273f96abd354
   Joint=58   CoordSys=GLOBAL   CoordType=Cartesian   XorR=0.75   Y=1.5   Z=0   SpecialJt=Yes   GUID=ad0f43b3-6bbe-435e-a27f-3aa1a13069ce
   Joint=59   CoordSys=GLOBAL   CoordType=Cartesian   XorR=1   Y=1.5   Z=0   SpecialJt=Yes   GUID=a26ef745-a601-4fcd-87ec-bd565dd7ad9d
   Joint=60   CoordSys=GLOBAL   CoordType=Cartesian   XorR=1.25   Y=1.5   Z=0   SpecialJt=Yes   GUID=e9b5810e-e414-4e3d-a698-bd667bd98eb9
   Joint=61   CoordSys=GLOBAL   CoordType=Cartesian   XorR=1.5   Y=1.5   Z=0   SpecialJt=Yes   GUID=e3455d44-7161-480e-b1cb-1c40f80697cb
   Joint=62   CoordSys=GLOBAL   CoordType=Cartesian   XorR=1.75   Y=1.5   Z=0   SpecialJt=Yes   GUID=653d8930-96ab-4d16-b423-2a058e7a5d41
   Joint=63   CoordSys=GLOBAL   CoordType=Cartesian   XorR=2   Y=1.5   Z=0   SpecialJt=Yes   GUID=7aff5dbd-961d-4b66-94a6-4336b76b82ea
   Joint=64   CoordSys=GLOBAL   CoordType=Cartesian   XorR=0   Y=1.75   Z=0   SpecialJt=Yes   GUID=81b1af39-a8d4-46d9-8c8e-74e62c3e2efa
   Joint=65   CoordSys=GLOBAL   CoordType=Cartesian   XorR=0.25   Y=1.75   Z=0   SpecialJt=Yes   GUID=7222e4be-94a2-4659-b5fe-fceea48d0191
   Joint=66   CoordSys=GLOBAL   CoordType=Cartesian   XorR=0.5   Y=1.75   Z=0   SpecialJt=Yes   GUID=9d4a6f46-7ab2-47cd-8a92-03c6c66840e2
   Joint=67   CoordSys=GLOBAL   CoordType=Cartesian   XorR=0.75   Y=1.75   Z=0   SpecialJt=Yes   GUID=566fe0d5-f99e-4e96-8d44-a7e2dcf8fe03
   Joint=68   CoordSys=GLOBAL   CoordType=Cartesian   XorR=1   Y=1.75   Z=0   SpecialJt=Yes   GUID=0f2ec920-d58d-4ec2-83b2-b9dc88d1067b
   Joint=69   CoordSys=GLOBAL   CoordType=Cartesian   XorR=1.25   Y=1.75   Z=0   SpecialJt=Yes   GUID=37aaa2c8-7364-4be9-998e-89601b9e4b57
   Joint=70   CoordSys=GLOBAL   CoordType=Cartesian   XorR=1.5   Y=1.75   Z=0   SpecialJt=Yes   GUID=b85b72b1-a627-4b40-bc27-a49bf5264415
   Joint=71   CoordSys=GLOBAL   CoordType=Cartesian   XorR=1.75   Y=1.75   Z=0   SpecialJt=Yes   GUID=c2e6b74a-74e0-4f70-872e-cd3bd741353b
   Joint=72   CoordSys=GLOBAL   CoordType=Cartesian   XorR=2   Y=1.75   Z=0   SpecialJt=Yes   GUID=363e2039-fff2-4d8a-8e4a-7bbaea91d88e
   Joint=73   CoordSys=GLOBAL   CoordType=Cartesian   XorR=0   Y=2   Z=0   SpecialJt=Yes   GUID=4f03630b-8e85-4b0a-8216-1e994eeff055
   Joint=74   CoordSys=GLOBAL   CoordType=Cartesian   XorR=0.25   Y=2   Z=0   SpecialJt=Yes   GUID=319fd1f7-696f-47ae-bdab-8ee0c9bf1775
   Joint=75   CoordSys=GLOBAL   CoordType=Cartesian   XorR=0.5   Y=2   Z=0   SpecialJt=Yes   GUID=20e8066b-5d92-4b6f-ab44-e41c216ba0e1
   Joint=76   CoordSys=GLOBAL   CoordType=Cartesian   XorR=0.75   Y=2   Z=0   SpecialJt=Yes   GUID=f2205bd1-7f08-4d56-b7c2-ddc6d0274140
   Joint=77   CoordSys=GLOBAL   CoordType=Cartesian   XorR=1   Y=2   Z=0   SpecialJt=Yes   GUID=e317fa80-4db0-4160-ad59-6498c6aa76ca
   Joint=78   CoordSys=GLOBAL   CoordType=Cartesian   XorR=1.25   Y=2   Z=0   SpecialJt=Yes   GUID=cd58c045-f304-4d15-8167-33250ff097c8
   Joint=79   CoordSys=GLOBAL   CoordType=Cartesian   XorR=1.5   Y=2   Z=0   SpecialJt=Yes   GUID=924a6247-1608-4948-814e-c6cc468cee9a
   Joint=80   CoordSys=GLOBAL   CoordType=Cartesian   XorR=1.75   Y=2   Z=0   SpecialJt=Yes   GUID=ffd7e871-c68f-45eb-9059-f120290a198e
   Joint=81   CoordSys=GLOBAL   CoordType=Cartesian   XorR=2   Y=2   Z=0   SpecialJt=Yes   GUID=55c5bf09-2b6f-46da-b989-cf900ef35899
 
TABLE:  "JOINT PATTERN DEFINITIONS"
   Pattern=Default
 
TABLE:  "JOINT RESTRAINT ASSIGNMENTS"
   Joint=1   U1=No   U2=No   U3=Yes   R1=No   R2=No   R3=No
   Joint=2   U1=No   U2=No   U3=Yes   R1=No   R2=No   R3=No
   Joint=3   U1=No   U2=No   U3=Yes   R1=No   R2=No   R3=No
   Joint=4   U1=No   U2=No   U3=Yes   R1=No   R2=No   R3=No
   Joint=5   U1=No   U2=No   U3=Yes   R1=No   R2=No   R3=No
   Joint=6   U1=No   U2=No   U3=Yes   R1=No   R2=No   R3=No
   Joint=7   U1=No   U2=No   U3=Yes   R1=No   R2=No   R3=No
   Joint=8   U1=No   U2=No   U3=Yes   R1=No   R2=No   R3=No
   Joint=9   U1=No   U2=No   U3=Yes   R1=No   R2=No   R3=No
   Joint=10   U1=No   U2=No   U3=Yes   R1=No   R2=No   R3=No
   Joint=18   U1=No   U2=No   U3=Yes   R1=No   R2=No   R3=No
   Joint=19   U1=No   U2=No   U3=Yes   R1=No   R2=No   R3=No
   Joint=27   U1=No   U2=No   U3=Yes   R1=No   R2=No   R3=No
   Joint=28   U1=No   U2=No   U3=Yes   R1=No   R2=No   R3=No
   Joint=36   U1=No   U2=No   U3=Yes   R1=No   R2=No   R3=No
   Joint=37   U1=No   U2=No   U3=Yes   R1=No   R2=No   R3=No
   Joint=45   U1=No   U2=No   U3=Yes   R1=No   R2=No   R3=No
   Joint=46   U1=No   U2=No   U3=Yes   R1=No   R2=No   R3=No
   Joint=54   U1=No   U2=No   U3=Yes   R1=No   R2=No   R3=No
   Joint=55   U1=No   U2=No   U3=Yes   R1=No   R2=No   R3=No
# ... 12 like lines cut
 
TABLE:  "LOAD CASE DEFINITIONS"
   Case=DEAD   Type=LinStatic   InitialCond=Zero   DesTypeOpt="Prog Det"   DesignType=Dead   DesActOpt="Prog Det"   DesignAct=Non-Composite   AutoType=None   RunCase=Yes   GUID=cfddbcf8-9dc5-41a7-a0b5-fb9789675e59
   Case=MODAL   Type=LinModal   InitialCond=Zero   DesTypeOpt="Prog Det"   DesignType=Other   DesActOpt="Prog Det"   DesignAct=Other   AutoType=None   RunCase=Yes   GUID=889e5773-2e64-421b-bd88-3cac98036545
 
TABLE:  "LOAD PATTERN DEFINITIONS"
   LoadPat=DEAD   DesignType=Dead   SelfWtMult=1   GUID=2d9937e7-3478-4791-88fd-635b5df37307
 
TABLE:  "MASS SOURCE"
   MassSource=MSSSRC1   Elements=Yes   Masses=Yes   Loads=No   IsDefault=Yes
 
TABLE:  "MATERIAL PROPERTIES 01 - GENERAL"
   Material=4000Psi   Type=Concrete   Grade="f'c 4000 psi"   SymType=Isotropic   TempDepend=No   Color=Red   GUID=083679f8-9a35-4bea-9e4e-e4dfe1b3906c   Notes="Customary f'c 4000 psi 2/4/2026 5:48:44 AM"
   Material=A992Fy50   Type=Steel   Grade="Grade 50"   SymType=Isotropic   TempDepend=No   Color=Cyan   Notes="ASTM A992 Grade 50 2/4/2026 5:48:44 AM"
   Material=CONC   Type=Concrete   SymType=Isotropic   TempDepend=No   Color=Magenta
 
TABLE:  "MATERIAL PROPERTIES 02 - BASIC MECHANICAL PROPERTIES"
   Material=4000Psi   UnitWeight=23.5631216161854   UnitMass=2.40276960558926   E1=24855578.0600518   G12=10356490.8583549   U12=0.2   A1=9.89999952793124E-06
   Material=A992Fy50   UnitWeight=76.9728639422648   UnitMass=7.84904737995992   E1=199947978.795958   G12=76903068.767676   U12=0.3   A1=1.16999994421006E-05
   Material=CONC   UnitWeight=23.563121614979   UnitMass=2.40276960611018   E1=25000000   G12=10416666.6666667   U12=0.2   A1=1E-05
 
TABLE:  "MATERIAL PROPERTIES 03A - STEEL DATA"
   Material=A992Fy50   Fy=344737.894475789   Fu=448159.262818526   EffFy=379211.683923368   EffFu=492975.189100378   SSCurveOpt=Simple   SSHysType=Kinematic   SHard=0.015   SMax=0.11   SRup=0.17   FinalSlope=-0.1   CoupModType="Von Mises"
 
TABLE:  "MATERIAL PROPERTIES 03B - CONCRETE DATA"
   Material=4000Psi   Fc=27579.0315580631   eFc=27579.0315580631   LtWtConc=No   SSCurveOpt=Mander   SSHysType=Takeda   SFc=0.00221914   SCap=0.005   FinalSlope=-0.1   FAngle=0   DAngle=0   CoupModType="Modified Darwin-Pecknold"
   Material=CONC   Fc=27579.0315580631   eFc=27579.0315580631   LtWtConc=No   SSCurveOpt=Mander   SSHysType=Takeda   SFc=0.00221914221766202   SCap=0.005   FinalSlope=-0.1   FAngle=0   DAngle=0   CoupModType="Modified Darwin-Pecknold"
 
TABLE:  "MATERIAL PROPERTIES 03J - COUPLED NONLINEAR VON MISES DATA"
   Material=A992Fy50   YieldStress=379211.683923368   LinIsoHard=No   LinKinHard=No   NLIsoSaHard=No
 
TABLE:  "MATERIAL PROPERTIES 06 - DAMPING PARAMETERS"
   Material=4000Psi   ModalRatio=0   VisMass=0   VisStiff=0   HysMass=0   HysStiff=0
   Material=A992Fy50   ModalRatio=0   VisMass=0   VisStiff=0   HysMass=0   HysStiff=0
   Material=CONC   ModalRatio=0   VisMass=0   VisStiff=0   HysMass=0   HysStiff=0
 
TABLE:  "MATERIAL PROPERTIES 09 - ACCEPTANCE CRITERIA"
   Material=4000Psi   IOTens=0.01   LSTens=0.02   CPTens=0.05   IOComp=-0.003   LSComp=-0.006   CPComp=-0.015   IgnoreTens=Yes
   Material=A992Fy50   IOTens=0.01   LSTens=0.02   CPTens=0.05   IOComp=-0.005   LSComp=-0.01   CPComp=-0.02
   Material=CONC   IOTens=0.01   LSTens=0.02   CPTens=0.05   IOComp=-0.003   LSComp=-0.006   CPComp=-0.015   IgnoreTens=Yes
 
TABLE:  "OPTIONS - COLORS - DISPLAY"
   DeviceType=Screen   Points=Blue   LinesFrame=Blue   LinesFrmDL=Blue   LinesCable=Green   LinesTendon=Green   SpringLinks=Green   Restraints=Green   Releases=Green   Axes=Cyan   Text=Black   ShadowLines=Gray8Dark   GuideLines=Gray8Dark _
        Highlight=Red   Selection=10504778   AreaFillBot=Red   AreaFillTop=16744703   AreaFillSd=Red   AreaEdge=DarkRed   SolidF1=Red   SolidF2=Blue   SolidF3=Green   SolidF4=Yellow   SolidF5=White   SolidF6=Cyan   SolidEdge=DarkRed _
        Floor=Gray4   Background=White   BGLowLeft=White   BGLowRight=White   BGUpRight=White   Darkness=0.5
   DeviceType=Printer   Points=Gray8Dark   LinesFrame=Black   LinesFrmDL=Gray4   LinesCable=Black   LinesTendon=Black   SpringLinks=Gray8Dark   Restraints=Gray8Dark   Releases=Gray4   Axes=Black   Text=Black   ShadowLines=Gray4 _
        GuideLines=Gray4   Highlight=Black   Selection=Black   AreaFillBot=Gray4   AreaFillTop=Gray8Dark   AreaFillSd=Gray4   AreaEdge=Black   SolidF1=Gray1Light   SolidF2=Gray2   SolidF3=Gray3   SolidF4=Gray4   SolidF5=Gray5 _
        SolidF6=Gray6   SolidEdge=Black   Floor=Gray4   Background=White   BGLowLeft=White   BGLowRight=White   BGUpRight=White   Darkness=0.5
   DeviceType="Color Printer"   Points=Blue   LinesFrame=Blue   LinesFrmDL=Blue   LinesCable=Green   LinesTendon=Green   SpringLinks=Green   Restraints=Green   Releases=Green   Axes=Cyan   Text=Black   ShadowLines=Gray8Dark _
        GuideLines=Gray8Dark   Highlight=Red   Selection=10504778   AreaFillBot=Red   AreaFillTop=16744703   AreaFillSd=Red   AreaEdge=DarkRed   SolidF1=Red   SolidF2=Blue   SolidF3=Green   SolidF4=Yellow   SolidF5=White   SolidF6=Cyan _
        SolidEdge=DarkRed   Floor=Gray4   Background=White   BGLowLeft=White   BGLowRight=White   BGUpRight=White   Darkness=0.5
 
TABLE:  "OPTIONS - COLORS - OUTPUT"
   DeviceType=Screen   Contour1=13107400   Contour2=6553828   Contour3=Red   Contour4=16639   Contour5=Orange   Contour6=43775   Contour7=54527   Contour8=Yellow   Contour9=65408   Contour10=Green   Contour11=8453888   Contour12=Cyan _
        Contour13=16755200   Contour14=16733440   Contour15=Blue   Transpare=0   Ratio1=Cyan   Ratio2=Green   Ratio3=Yellow   Ratio4=Orange   Ratio5=Red   RatioNotD=Gray4   RatioNotC=Red   RatioVal1=0.5   RatioVal2=0.7   RatioVal3=0.9 _
        RatioVal4=1   DFillPos=Blue   DFillNeg=Red   DFillRPos=Green   DFillRNeg=Green
   DeviceType=Printer   Contour1=Black   Contour2=3158064   Contour3=4210752   Contour4=5263440   Contour5=6316128   Contour6=7368816   Contour7=Gray8Dark   Contour8=Gray7   Contour9=Gray6   Contour10=Gray5   Contour11=Gray4 _
        Contour12=Gray3   Contour13=Gray2   Contour14=Gray1Light   Contour15=White   Transpare=0   Ratio1=Gray2   Ratio2=Gray4   Ratio3=Gray8Dark   Ratio4=4210752   Ratio5=Black   RatioNotD=Gray4   RatioNotC=Black   RatioVal1=0.5 _
        RatioVal2=0.7   RatioVal3=0.9   RatioVal4=1   DFillPos=Gray8Dark   DFillNeg=Gray8Dark   DFillRPos=4210752   DFillRNeg=4210752
   DeviceType="Color Printer"   Contour1=13107400   Contour2=6553828   Contour3=Red   Contour4=16639   Contour5=Orange   Contour6=43775   Contour7=54527   Contour8=Yellow   Contour9=65408   Contour10=Green   Contour11=8453888 _
        Contour12=Cyan   Contour13=16755200   Contour14=16733440   Contour15=Blue   Transpare=0   Ratio1=Cyan   Ratio2=Green   Ratio3=Yellow   Ratio4=Orange   Ratio5=Red   RatioNotD=Gray4   RatioNotC=Red   RatioVal1=0.5   RatioVal2=0.7 _
        RatioVal3=0.9   RatioVal4=1   DFillPos=Blue   DFillNeg=Red   DFillRPos=Green   DFillRNeg=Green
 
TABLE:  "PREFERENCES - ALUMINUM DESIGN - AA 2015"
   THDesign=Envelopes   SRatioLimit=1   Provision=LRFD   LatFact=1.33333333333333   UseLatFact=No   Bridge=No   PhiTy=0.9   PhiTr=0.75   PhiC=0.9   PhiBo=0.9   PhiBr=0.75   PhiVo=0.9   PhiVr=0.75
 
TABLE:  "PREFERENCES - COLD FORMED DESIGN - AISI-16"
   THDesign=Envelopes   FrameType="Braced Frame"   SRatioLimit=1   SOMethod="General 2nd Order"   Provision=LRFD   LatFact=1.33333333333333   UseLatFact=No   PhiTy=0.9   PhiTr=0.75   PhiC=0.85   PhiB=0.9   PhiBPipe=0.95   PhiV=0.95
 
TABLE:  "PREFERENCES - CONCRETE DESIGN - ACI 318-19"
   THDesign=Envelopes   NumCurves=24   NumPoints=11   MinEccen=Yes   BCCDesign=Yes   IgnoreBPu=Yes   CTorsion=Yes   PatLLF=0.75   UFLimit=0.95   SeisCat=D   Rho=1   Sds=0.5   PhiT=0.9   PhiCTied=0.65   PhiCSpiral=0.75   PhiV=0.75 _
        PhiVSeismic=0.6   PhiVJoint=0.85   TanTheta=1
 
TABLE:  "PREFERENCES - CONCRETE SHELL DESIGN - EUROCODE 2-2004"
   Country="CEN Default"   GammaS=1.15   GammaC=1.5   AlphaCC=1   AlphaCT=1   CrackCond="Program Determined"   ShrDesMet="Method 1"   CotTheta=1
 
TABLE:  "PREFERENCES - DIMENSIONAL"
   MergeTol=0.001   FineGrid=0.25   Nudge=0.25   SelectTol=3   SnapTol=12   SLineThick=1   PLineThick=4   MaxFont=8   MinFont=3   AutoZoom=10   ShrinkFact=70   TextFileLen=240
 
TABLE:  "PREFERENCES - STEEL DESIGN - AISC 360-16"
   THDesign=Envelopes   FrameType=SMF   PatLLF=0.75   SRatioLimit=0.95   MaxIter=1   SDC=D   SeisCode=No   SeisLoad=No   ImpFactor=1   SystemRho=1   SystemSds=0.5   SystemR=8   SystemCd=5.5   Omega0=3   Provision=LRFD _
        AMethod="Direct Analysis"   SOMethod="General 2nd Order"   SRMethod="Tau-b Fixed"   NLCoeff=0.002   PhiB=0.9   PhiC=0.9   PhiTY=0.9   PhiTF=0.75   PhiV=0.9   PhiVRolledI=1   PhiVT=0.9   PlugWeld=Yes   HSSWelding=ERW   HSSReduceT=No _
        CheckDefl=No   DLRat=120   SDLAndLLRat=120   LLRat=360   TotalRat=240   NetRat=240
 
TABLE:  "PROGRAM CONTROL"
   ProgramName=SAP2000   Version=24.1.0   CurrUnits="KN, m, C"   SteelCode="AISC 360-16"   ConcCode="ACI 318-19"   AlumCode="AA 2015"   ColdCode=AISI-16   RegenHinge=Yes
 
TABLE:  "PROJECT INFORMATION"
   Item="Company Name"
   Item="Client Name"
   Item="Project Name"
   Item="Project Number"
   Item="Model Name"
   Item="Model Description"
   Item="Revision Number"
   Item="Frame Type"
   Item=Engineer
   Item=Checker
   Item=Supervisor
   Item="Issue Code"
   Item="Design Code"
 
TABLE:  "REBAR SIZES"
   RebarID=#2   Area=3.2258E-05   Diameter=0.00635
   RebarID=#3   Area=7.09675996154547E-05   Diameter=0.009525
   RebarID=#4   Area=0.000129032001922727   Diameter=0.0127
   RebarID=#5   Area=0.000199999601538181   Diameter=0.015875
   RebarID=#6   Area=0.000283870398461819   Diameter=0.01905
   RebarID=#7   Area=0.000387096015381813   Diameter=0.022225
   RebarID=#8   Area=0.000509676413843632   Diameter=0.0254
   RebarID=#9   Area=0.00064516   Diameter=0.0286512005329132
   RebarID=#10   Area=0.00081935318769455   Diameter=0.0322579995155334
   RebarID=#11   Area=0.00100644956308365   Diameter=0.0358139991521835
   RebarID=#14   Area=0.00145161   Diameter=0.0430021989583969
   RebarID=#18   Area=0.00258064   Diameter=0.0573277992248535
   RebarID=10M   Area=0.000100000002655387   Diameter=0.011300000667572
   RebarID=15M   Area=0.000200000005310774   Diameter=0.0159999999403954
   RebarID=20M   Area=0.000300000017579794   Diameter=0.0194999997854233
   RebarID=25M   Area=0.000500000022890568   Diameter=0.0252000016093254
   RebarID=30M   Area=0.000700000008974075   Diameter=0.0299000008821487
   RebarID=35M   Area=0.00100000004578114   Diameter=0.0357000011444092
   RebarID=45M   Area=0.00150000010712624   Diameter=0.0437000003576279
   RebarID=55M   Area=0.00250000007599831   Diameter=0.0564000033855438
   RebarID=6d   Area=2.83000004149973E-05   Diameter=0.006000000166893
   RebarID=8d   Area=5.02999995571375E-05   Diameter=0.00799999997019768
   RebarID=10d   Area=7.85000013634562E-05   Diameter=0.00999999977350235
   RebarID=12d   Area=0.000113000009249449   Diameter=0.012000000333786
   RebarID=14d   Area=0.000154000010818839   Diameter=0.0140000008940697
   RebarID=16d   Area=0.000201000015431643   Diameter=0.0159999999403954
   RebarID=20d   Area=0.000314000005453825   Diameter=0.0199999995470047
   RebarID=25d   Area=0.000491000008711815   Diameter=0.0250000001907349
   RebarID=26d   Area=0.000531000029001236   Diameter=0.0259999997138977
   RebarID=28d   Area=0.000616000043275356   Diameter=0.0280000017881393
   RebarID=N12   Area=0.000113000009249449   Diameter=0.012000000333786
   RebarID=N16   Area=0.000201000015431643   Diameter=0.0159999999403954
   RebarID=N20   Area=0.000314000005453825   Diameter=0.0199999995470047
   RebarID=N24   Area=0.000452000036997795   Diameter=0.024000000667572
   RebarID=N28   Area=0.000616000043275356   Diameter=0.0280000017881393
   RebarID=N32   Area=0.00080400006172657   Diameter=0.0319999998807907
   RebarID=N36   Area=0.00102000001747131   Diameter=0.036000001001358
 
END TABLE DATA
